CPD_0
  Mrv1822 09091914012D          

 26 28  0  0  0  0            999 V2000
   -2.1573   -4.7407    0.0000 C   0  0  0  0  0  0  0  0  0  0  0  0
   -1.9437   -3.9438    0.0000 O   0  0  0  0  0  0  0  0  0  0  0  0
   -2.5271   -3.3605    0.0000 C   0  0  0  0  0  0  0  0  0  0  0  0
   -3.3240   -3.5740    0.0000 C   0  0  0  0  0  0  0  0  0  0  0  0
   -3.9073   -2.9906    0.0000 C   0  0  0  0  0  0  0  0  0  0  0  0
   -3.6938   -2.1937    0.0000 C   0  0  0  0  0  0  0  0  0  0  0  0
   -2.8969   -1.9802    0.0000 C   0  0  0  0  0  0  0  0  0  0  0  0
   -2.3136   -2.5636    0.0000 C   0  0  0  0  0  0  0  0  0  0  0  0
   -1.5167   -2.3500    0.0000 N   0  0  0  0  0  0  0  0  0  0  0  0
   -0.9333   -2.9334    0.0000 C   0  0  0  0  0  0  0  0  0  0  0  0
   -0.1364   -2.7199    0.0000 C   0  0  0  0  0  0  0  0  0  0  0  0
    0.4469   -3.3032    0.0000 C   0  0  0  0  0  0  0  0  0  0  0  0
    1.2438   -3.0897    0.0000 C   0  0  0  0  0  0  0  0  0  0  0  0
    1.4573   -2.2928    0.0000 O   0  0  0  0  0  0  0  0  0  0  0  0
    1.8272   -3.6731    0.0000 N   0  0  0  0  0  0  0  0  0  0  0  0
    2.6522   -3.6731    0.0000 C   0  0  0  0  0  0  0  0  0  0  0  0
    2.6522   -4.4981    0.0000 C   0  0  0  0  0  0  0  0  0  0  0  0
    3.4772   -4.4981    0.0000 O   0  0  0  0  0  0  0  0  0  0  0  0
    1.8272   -4.4981    0.0000 C   0  0  0  0  0  0  0  0  0  0  0  0
    2.6522   -5.3231    0.0000 C   0  0  0  0  0  0  0  0  0  0  0  0
    3.0647   -6.0376    0.0000 C   0  0  0  0  0  0  0  0  0  0  0  0
    2.2397   -6.0376    0.0000 C   0  0  0  0  0  0  0  0  0  0  0  0
   -1.3032   -1.5532    0.0000 S   0  0  0  0  0  0  0  0  0  0  0  0
   -1.0896   -0.7563    0.0000 C   0  0  0  0  0  0  0  0  0  0  0  0
   -0.5063   -1.7667    0.0000 O   0  0  0  0  0  0  0  0  0  0  0  0
   -2.1000   -1.3396    0.0000 O   0  0  0  0  0  0  0  0  0  0  0  0
  1  2  1  0  0  0  0
  2  3  1  0  0  0  0
  3  4  2  0  0  0  0
  4  5  1  0  0  0  0
  5  6  2  0  0  0  0
  6  7  1  0  0  0  0
  7  8  2  0  0  0  0
  3  8  1  0  0  0  0
  8  9  1  0  0  0  0
  9 10  1  0  0  0  0
 10 11  1  0  0  0  0
 11 12  1  0  0  0  0
 12 13  1  0  0  0  0
 13 14  2  0  0  0  0
 13 15  1  0  0  0  0
 15 16  1  0  0  0  0
 16 17  1  0  0  0  0
 17 18  1  0  0  0  0
 17 19  1  0  0  0  0
 15 19  1  0  0  0  0
 17 20  1  0  0  0  0
 20 21  1  0  0  0  0
 21 22  1  0  0  0  0
 20 22  1  0  0  0  0
  9 23  1  0  0  0  0
 23 24  1  0  0  0  0
 23 25  2  0  0  0  0
 23 26  2  0  0  0  0
M  END
> <ID>
CPD_0

$$$$
CPD_5
  Mrv1822 09091914012D          

 30 33  0  0  0  0            999 V2000
   -2.5680   -1.4784    0.0000 C   0  0  0  0  0  0  0  0  0  0  0  0
   -1.7711   -1.2649    0.0000 C   0  0  0  0  0  0  0  0  0  0  0  0
   -1.5575   -0.4680    0.0000 C   0  0  0  0  0  0  0  0  0  0  0  0
   -0.7607   -0.2545    0.0000 C   0  0  0  0  0  0  0  0  0  0  0  0
   -0.1773   -0.8379    0.0000 C   0  0  0  0  0  0  0  0  0  0  0  0
   -0.3908   -1.6348    0.0000 C   0  0  0  0  0  0  0  0  0  0  0  0
   -1.1877   -1.8483    0.0000 C   0  0  0  0  0  0  0  0  0  0  0  0
    0.6196   -0.6243    0.0000 S   0  0  0  0  0  0  0  0  0  0  0  0
    0.8331   -1.4212    0.0000 O   0  0  0  0  0  0  0  0  0  0  0  0
    0.4061    0.1725    0.0000 O   0  0  0  0  0  0  0  0  0  0  0  0
    1.4165   -0.4108    0.0000 N   0  0  0  0  0  0  0  0  0  0  0  0
    1.9999   -0.9942    0.0000 C   0  0  0  0  0  0  0  0  0  0  0  0
    2.7967   -0.7807    0.0000 C   0  0  0  0  0  0  0  0  0  0  0  0
    3.0103    0.0162    0.0000 O   0  0  0  0  0  0  0  0  0  0  0  0
    3.3801   -1.3640    0.0000 N   0  0  0  0  0  0  0  0  0  0  0  0
    4.2051   -1.3640    0.0000 C   0  0  0  0  0  0  0  0  0  0  0  0
    4.2051   -2.1890    0.0000 C   0  0  0  0  0  0  0  0  0  0  0  0
    5.0301   -2.1890    0.0000 O   0  0  0  0  0  0  0  0  0  0  0  0
    3.3801   -2.1890    0.0000 C   0  0  0  0  0  0  0  0  0  0  0  0
    4.2051   -3.0140    0.0000 C   0  0  0  0  0  0  0  0  0  0  0  0
    4.6176   -3.7285    0.0000 C   0  0  0  0  0  0  0  0  0  0  0  0
    3.7926   -3.7285    0.0000 C   0  0  0  0  0  0  0  0  0  0  0  0
    1.6300    0.3861    0.0000 C   0  0  0  0  0  0  0  0  0  0  0  0
    1.0467    0.9694    0.0000 C   0  0  0  0  0  0  0  0  0  0  0  0
    0.2498    0.7559    0.0000 C   0  0  0  0  0  0  0  0  0  0  0  0
    1.2602    1.7663    0.0000 C   0  0  0  0  0  0  0  0  0  0  0  0
    2.0571    1.9798    0.0000 C   0  0  0  0  0  0  0  0  0  0  0  0
    2.6404    1.3965    0.0000 C   0  0  0  0  0  0  0  0  0  0  0  0
    3.4373    1.6100    0.0000 Cl  0  0  0  0  0  0  0  0  0  0  0  0
    2.4269    0.5996    0.0000 C   0  0  0  0  0  0  0  0  0  0  0  0
  1  2  1  0  0  0  0
  2  3  2  0  0  0  0
  3  4  1  0  0  0  0
  4  5  2  0  0  0  0
  5  6  1  0  0  0  0
  6  7  2  0  0  0  0
  2  7  1  0  0  0  0
  5  8  1  0  0  0  0
  8  9  2  0  0  0  0
  8 10  2  0  0  0  0
  8 11  1  0  0  0  0
 11 12  1  0  0  0  0
 12 13  1  0  0  0  0
 13 14  2  0  0  0  0
 13 15  1  0  0  0  0
 15 16  1  0  0  0  0
 16 17  1  0  0  0  0
 17 18  1  0  0  0  0
 17 19  1  0  0  0  0
 15 19  1  0  0  0  0
 17 20  1  0  0  0  0
 20 21  1  0  0  0  0
 21 22  1  0  0  0  0
 20 22  1  0  0  0  0
 11 23  1  0  0  0  0
 23 24  2  0  0  0  0
 24 25  1  0  0  0  0
 24 26  1  0  0  0  0
 26 27  2  0  0  0  0
 27 28  1  0  0  0  0
 28 29  1  0  0  0  0
 28 30  2  0  0  0  0
 23 30  1  0  0  0  0
M  END
> <ID>
CPD_5

$$$$
CPD_10
  Mrv1822 09091914012D          

 23 26  0  0  0  0            999 V2000
   -6.4778    2.3336    0.0000 C   0  0  0  0  0  0  0  0  0  0  0  0
   -5.7859    1.8842    0.0000 C   0  0  0  0  0  0  0  0  0  0  0  0
   -5.8291    1.0604    0.0000 C   0  0  0  0  0  0  0  0  0  0  0  0
   -5.1880    0.5412    0.0000 C   0  0  0  0  0  0  0  0  0  0  0  0
   -5.4836   -0.2290    0.0000 S   0  0  0  0  0  0  0  0  0  0  0  0
   -6.3075   -0.1859    0.0000 C   0  0  0  0  0  0  0  0  0  0  0  0
   -6.5210    0.6110    0.0000 N   0  0  0  0  0  0  0  0  0  0  0  0
   -6.8267   -0.8270    0.0000 C   0  0  0  0  0  0  0  0  0  0  0  0
   -6.5310   -1.5972    0.0000 N   0  0  0  0  0  0  0  0  0  0  0  0
   -7.0502   -2.2384    0.0000 C   0  0  0  0  0  0  0  0  0  0  0  0
   -7.8651   -2.1093    0.0000 C   0  0  0  0  0  0  0  0  0  0  0  0
   -8.1607   -1.3391    0.0000 C   0  0  0  0  0  0  0  0  0  0  0  0
   -7.6415   -0.6979    0.0000 N   0  0  0  0  0  0  0  0  0  0  0  0
   -4.3911    0.7547    0.0000 C   0  0  0  0  0  0  0  0  0  0  0  0
   -4.1775    1.5516    0.0000 O   0  0  0  0  0  0  0  0  0  0  0  0
   -3.8077    0.1713    0.0000 N   0  0  0  0  0  0  0  0  0  0  0  0
   -2.9827    0.1713    0.0000 C   0  0  0  0  0  0  0  0  0  0  0  0
   -2.9827   -0.6537    0.0000 C   0  0  0  0  0  0  0  0  0  0  0  0
   -2.1577   -0.6537    0.0000 O   0  0  0  0  0  0  0  0  0  0  0  0
   -3.8077   -0.6537    0.0000 C   0  0  0  0  0  0  0  0  0  0  0  0
   -2.9827   -1.4787    0.0000 C   0  0  0  0  0  0  0  0  0  0  0  0
   -2.5702   -2.1931    0.0000 C   0  0  0  0  0  0  0  0  0  0  0  0
   -3.3952   -2.1931    0.0000 C   0  0  0  0  0  0  0  0  0  0  0  0
  1  2  1  0  0  0  0
  2  3  1  0  0  0  0
  3  4  2  0  0  0  0
  4  5  1  0  0  0  0
  5  6  1  0  0  0  0
  6  7  2  0  0  0  0
  3  7  1  0  0  0  0
  6  8  1  0  0  0  0
  8  9  2  0  0  0  0
  9 10  1  0  0  0  0
 10 11  2  0  0  0  0
 11 12  1  0  0  0  0
 12 13  2  0  0  0  0
  8 13  1  0  0  0  0
  4 14  1  0  0  0  0
 14 15  2  0  0  0  0
 14 16  1  0  0  0  0
 16 17  1  0  0  0  0
 17 18  1  0  0  0  0
 18 19  1  0  0  0  0
 18 20  1  0  0  0  0
 16 20  1  0  0  0  0
 18 21  1  0  0  0  0
 21 22  1  0  0  0  0
 22 23  1  0  0  0  0
 21 23  1  0  0  0  0
M  END
> <ID>
CPD_10

$$$$
CPD_15
  Mrv1822 09091914012D          

 26 29  0  0  0  0            999 V2000
   -1.8528    6.5407    0.0000 C   0  0  0  0  0  0  0  0  0  0  0  0
   -1.2694    5.9574    0.0000 O   0  0  0  0  0  0  0  0  0  0  0  0
   -1.4830    5.1605    0.0000 C   0  0  0  0  0  0  0  0  0  0  0  0
   -0.8996    4.5771    0.0000 C   0  0  0  0  0  0  0  0  0  0  0  0
   -1.1131    3.7802    0.0000 C   0  0  0  0  0  0  0  0  0  0  0  0
   -1.9100    3.5667    0.0000 C   0  0  0  0  0  0  0  0  0  0  0  0
   -2.1235    2.7698    0.0000 F   0  0  0  0  0  0  0  0  0  0  0  0
   -2.4934    4.1501    0.0000 C   0  0  0  0  0  0  0  0  0  0  0  0
   -2.2798    4.9470    0.0000 C   0  0  0  0  0  0  0  0  0  0  0  0
   -0.1027    4.7907    0.0000 C   0  0  0  0  0  0  0  0  0  0  0  0
    0.1108    5.5875    0.0000 C   0  0  0  0  0  0  0  0  0  0  0  0
    0.9077    5.8011    0.0000 C   0  0  0  0  0  0  0  0  0  0  0  0
    1.4911    5.2177    0.0000 C   0  0  0  0  0  0  0  0  0  0  0  0
    2.2880    5.4312    0.0000 C   0  0  0  0  0  0  0  0  0  0  0  0
    2.5015    6.2281    0.0000 O   0  0  0  0  0  0  0  0  0  0  0  0
    2.8713    4.8479    0.0000 N   0  0  0  0  0  0  0  0  0  0  0  0
    3.6963    4.8479    0.0000 C   0  0  0  0  0  0  0  0  0  0  0  0
    3.6963    4.0229    0.0000 C   0  0  0  0  0  0  0  0  0  0  0  0
    4.5213    4.0229    0.0000 O   0  0  0  0  0  0  0  0  0  0  0  0
    2.8713    4.0229    0.0000 C   0  0  0  0  0  0  0  0  0  0  0  0
    3.6963    3.1979    0.0000 C   0  0  0  0  0  0  0  0  0  0  0  0
    4.1088    2.4834    0.0000 C   0  0  0  0  0  0  0  0  0  0  0  0
    3.2838    2.4834    0.0000 C   0  0  0  0  0  0  0  0  0  0  0  0
    1.2776    4.4208    0.0000 C   0  0  0  0  0  0  0  0  0  0  0  0
    1.8609    3.8375    0.0000 F   0  0  0  0  0  0  0  0  0  0  0  0
    0.4807    4.2073    0.0000 C   0  0  0  0  0  0  0  0  0  0  0  0
  1  2  1  0  0  0  0
  2  3  1  0  0  0  0
  3  4  2  0  0  0  0
  4  5  1  0  0  0  0
  5  6  2  0  0  0  0
  6  7  1  0  0  0  0
  6  8  1  0  0  0  0
  8  9  2  0  0  0  0
  3  9  1  0  0  0  0
  4 10  1  0  0  0  0
 10 11  2  0  0  0  0
 11 12  1  0  0  0  0
 12 13  2  0  0  0  0
 13 14  1  0  0  0  0
 14 15  2  0  0  0  0
 14 16  1  0  0  0  0
 16 17  1  0  0  0  0
 17 18  1  0  0  0  0
 18 19  1  0  0  0  0
 18 20  1  0  0  0  0
 16 20  1  0  0  0  0
 18 21  1  0  0  0  0
 21 22  1  0  0  0  0
 22 23  1  0  0  0  0
 21 23  1  0  0  0  0
 13 24  1  0  0  0  0
 24 25  1  0  0  0  0
 24 26  2  0  0  0  0
 10 26  1  0  0  0  0
M  END
> <ID>
CPD_15

$$$$
CPD_20
  Mrv1822 09091914012D          

 24 26  0  0  0  0            999 V2000
    0.0000   -2.4750    0.0000 C   0  0  0  0  0  0  0  0  0  0  0  0
    0.7145   -2.8875    0.0000 C   0  0  0  0  0  0  0  0  0  0  0  0
    1.4289   -2.4750    0.0000 C   0  0  0  0  0  0  0  0  0  0  0  0
    2.1434   -2.8875    0.0000 O   0  0  0  0  0  0  0  0  0  0  0  0
    2.8579   -2.4750    0.0000 C   0  0  0  0  0  0  0  0  0  0  0  0
    2.8579   -1.6500    0.0000 O   0  0  0  0  0  0  0  0  0  0  0  0
    3.5724   -2.8875    0.0000 C   0  0  0  0  0  0  0  0  0  0  0  0
    4.2868   -2.4750    0.0000 C   0  0  0  0  0  0  0  0  0  0  0  0
    5.0013   -2.8875    0.0000 C   0  0  0  0  0  0  0  0  0  0  0  0
    5.0013   -3.7125    0.0000 C   0  0  0  0  0  0  0  0  0  0  0  0
    5.7158   -4.1250    0.0000 O   0  0  0  0  0  0  0  0  0  0  0  0
    5.7158   -4.9500    0.0000 C   0  0  0  0  0  0  0  0  0  0  0  0
    6.4302   -5.3625    0.0000 C   0  0  0  0  0  0  0  0  0  0  0  0
    7.1447   -4.9500    0.0000 O   0  0  0  0  0  0  0  0  0  0  0  0
    6.4302   -6.1875    0.0000 N   0  0  0  0  0  0  0  0  0  0  0  0
    7.0136   -6.7709    0.0000 C   0  0  0  0  0  0  0  0  0  0  0  0
    6.4302   -7.3542    0.0000 C   0  0  0  0  0  0  0  0  0  0  0  0
    7.0136   -7.9376    0.0000 O   0  0  0  0  0  0  0  0  0  0  0  0
    5.8469   -6.7709    0.0000 C   0  0  0  0  0  0  0  0  0  0  0  0
    5.8469   -7.9376    0.0000 C   0  0  0  0  0  0  0  0  0  0  0  0
    5.6333   -8.7345    0.0000 C   0  0  0  0  0  0  0  0  0  0  0  0
    5.0500   -8.1511    0.0000 C   0  0  0  0  0  0  0  0  0  0  0  0
    4.2868   -4.1250    0.0000 C   0  0  0  0  0  0  0  0  0  0  0  0
    3.5724   -3.7125    0.0000 C   0  0  0  0  0  0  0  0  0  0  0  0
  1  2  1  0  0  0  0
  2  3  1  0  0  0  0
  3  4  1  0  0  0  0
  4  5  1  0  0  0  0
  5  6  2  0  0  0  0
  5  7  1  0  0  0  0
  7  8  2  0  0  0  0
  8  9  1  0  0  0  0
  9 10  2  0  0  0  0
 10 11  1  0  0  0  0
 11 12  1  0  0  0  0
 12 13  1  0  0  0  0
 13 14  2  0  0  0  0
 13 15  1  0  0  0  0
 15 16  1  0  0  0  0
 16 17  1  0  0  0  0
 17 18  1  0  0  0  0
 17 19  1  0  0  0  0
 15 19  1  0  0  0  0
 17 20  1  0  0  0  0
 20 21  1  0  0  0  0
 21 22  1  0  0  0  0
 20 22  1  0  0  0  0
 10 23  1  0  0  0  0
 23 24  2  0  0  0  0
  7 24  1  0  0  0  0
M  END
> <ID>
CPD_20

$$$$
CPD_25
  Mrv1822 09091914012D          

 30 31  0  0  0  0            999 V2000
   -3.6680   -2.6309    0.0000 C   0  0  0  0  0  0  0  0  0  0  0  0
   -2.8579   -2.4750    0.0000 N   0  0  0  0  0  0  0  0  0  0  0  0
   -2.3178   -3.0986    0.0000 C   0  0  0  0  0  0  0  0  0  0  0  0
   -2.5878   -3.8782    0.0000 O   0  0  0  0  0  0  0  0  0  0  0  0
   -1.5077   -2.9427    0.0000 C   0  0  0  0  0  0  0  0  0  0  0  0
   -1.2376   -2.1632    0.0000 C   0  0  0  0  0  0  0  0  0  0  0  0
   -0.9676   -3.5664    0.0000 N   0  0  0  0  0  0  0  0  0  0  0  0
   -0.1574   -3.4105    0.0000 C   0  0  0  0  0  0  0  0  0  0  0  0
    0.1126   -2.6309    0.0000 O   0  0  0  0  0  0  0  0  0  0  0  0
    0.3827   -4.0341    0.0000 C   0  0  0  0  0  0  0  0  0  0  0  0
    1.1928   -3.8782    0.0000 C   0  0  0  0  0  0  0  0  0  0  0  0
    1.7329   -4.5018    0.0000 N   0  0  0  0  0  0  0  0  0  0  0  0
    2.5430   -4.3459    0.0000 C   0  0  0  0  0  0  0  0  0  0  0  0
    3.0831   -4.9696    0.0000 C   0  0  0  0  0  0  0  0  0  0  0  0
    3.8932   -4.8137    0.0000 C   0  0  0  0  0  0  0  0  0  0  0  0
    4.4333   -5.4373    0.0000 C   0  0  0  0  0  0  0  0  0  0  0  0
    4.1633   -6.2168    0.0000 C   0  0  0  0  0  0  0  0  0  0  0  0
    3.3531   -6.3728    0.0000 C   0  0  0  0  0  0  0  0  0  0  0  0
    2.8131   -5.7491    0.0000 C   0  0  0  0  0  0  0  0  0  0  0  0
    1.4628   -3.0986    0.0000 C   0  0  0  0  0  0  0  0  0  0  0  0
    2.2730   -2.9427    0.0000 O   0  0  0  0  0  0  0  0  0  0  0  0
    0.9227   -2.4750    0.0000 N   0  0  0  0  0  0  0  0  0  0  0  0
    1.1928   -1.6954    0.0000 C   0  0  0  0  0  0  0  0  0  0  0  0
    0.6527   -1.0718    0.0000 C   0  0  0  0  0  0  0  0  0  0  0  0
    0.9227   -0.2923    0.0000 C   0  0  0  0  0  0  0  0  0  0  0  0
    1.7329   -0.1363    0.0000 C   0  0  0  0  0  0  0  0  0  0  0  0
    2.2730   -0.7600    0.0000 C   0  0  0  0  0  0  0  0  0  0  0  0
    2.0029   -1.5395    0.0000 C   0  0  0  0  0  0  0  0  0  0  0  0
   -0.1574   -1.2277    0.0000 C   0  0  0  0  0  0  0  0  0  0  0  0
   -0.9676   -1.3836    0.0000 N   0  0  0  0  0  0  0  0  0  0  0  0
  1  2  1  0  0  0  0
  2  3  1  0  0  0  0
  3  4  2  0  0  0  0
  3  5  1  0  0  0  0
  5  6  1  0  0  0  0
  5  7  1  0  0  0  0
  7  8  1  0  0  0  0
  8  9  2  0  0  0  0
  8 10  1  0  0  0  0
 10 11  1  0  0  0  0
 11 12  1  0  0  0  0
 12 13  1  0  0  0  0
 13 14  1  0  0  0  0
 14 15  2  0  0  0  0
 15 16  1  0  0  0  0
 16 17  2  0  0  0  0
 17 18  1  0  0  0  0
 18 19  2  0  0  0  0
 14 19  1  0  0  0  0
 11 20  1  0  0  0  0
 20 21  2  0  0  0  0
 20 22  1  0  0  0  0
 22 23  1  0  0  0  0
 23 24  2  0  0  0  0
 24 25  1  0  0  0  0
 25 26  2  0  0  0  0
 26 27  1  0  0  0  0
 27 28  2  0  0  0  0
 23 28  1  0  0  0  0
 24 29  1  0  0  0  0
 29 30  3  0  0  0  0
M  END
> <ID>
CPD_25

$$$$
CPD_30
  Mrv1822 09091914012D          

 22 22  0  0  0  0            999 V2000
    1.4289   -4.1250    0.0000 C   0  0  0  0  0  0  0  0  0  0  0  0
    2.1434   -3.7125    0.0000 N   0  0  0  0  0  0  0  0  0  0  0  0
    2.8579   -4.1250    0.0000 C   0  0  0  0  0  0  0  0  0  0  0  0
    2.8579   -4.9500    0.0000 O   0  0  0  0  0  0  0  0  0  0  0  0
    3.5724   -3.7125    0.0000 C   0  0  0  0  0  0  0  0  0  0  0  0
    3.5724   -2.8875    0.0000 C   0  0  0  0  0  0  0  0  0  0  0  0
    4.2868   -4.1250    0.0000 N   0  0  0  0  0  0  0  0  0  0  0  0
    5.0013   -3.7125    0.0000 C   0  0  0  0  0  0  0  0  0  0  0  0
    5.0013   -2.8875    0.0000 O   0  0  0  0  0  0  0  0  0  0  0  0
    5.7158   -4.1250    0.0000 C   0  0  0  0  0  0  0  0  0  0  0  0
    6.4302   -3.7125    0.0000 C   0  0  0  0  0  0  0  0  0  0  0  0
    6.4302   -2.8875    0.0000 O   0  0  0  0  0  0  0  0  0  0  0  0
    7.1447   -2.4750    0.0000 C   0  0  0  0  0  0  0  0  0  0  0  0
    7.1447   -4.1250    0.0000 C   0  0  0  0  0  0  0  0  0  0  0  0
    7.1447   -4.9500    0.0000 C   0  0  0  0  0  0  0  0  0  0  0  0
    7.8592   -5.3625    0.0000 O   0  0  0  0  0  0  0  0  0  0  0  0
    8.5737   -4.9500    0.0000 C   0  0  0  0  0  0  0  0  0  0  0  0
    9.2881   -4.5375    0.0000 F   0  0  0  0  0  0  0  0  0  0  0  0
    8.9862   -5.6645    0.0000 F   0  0  0  0  0  0  0  0  0  0  0  0
    8.1612   -4.2355    0.0000 F   0  0  0  0  0  0  0  0  0  0  0  0
    6.4302   -5.3625    0.0000 C   0  0  0  0  0  0  0  0  0  0  0  0
    5.7158   -4.9500    0.0000 C   0  0  0  0  0  0  0  0  0  0  0  0
  1  2  1  0  0  0  0
  2  3  1  0  0  0  0
  3  4  2  0  0  0  0
  3  5  1  0  0  0  0
  5  6  1  0  0  0  0
  5  7  1  0  0  0  0
  7  8  1  0  0  0  0
  8  9  2  0  0  0  0
  8 10  1  0  0  0  0
 10 11  2  0  0  0  0
 11 12  1  0  0  0  0
 12 13  1  0  0  0  0
 11 14  1  0  0  0  0
 14 15  2  0  0  0  0
 15 16  1  0  0  0  0
 16 17  1  0  0  0  0
 17 18  1  0  0  0  0
 17 19  1  0  0  0  0
 17 20  1  0  0  0  0
 15 21  1  0  0  0  0
 21 22  2  0  0  0  0
 10 22  1  0  0  0  0
M  END
> <ID>
CPD_30

$$$$
CPD_35
  Mrv1822 09091914012D          

 38 41  0  0  0  0            999 V2000
   -3.5724   -4.5375    0.0000 C   0  0  0  0  0  0  0  0  0  0  0  0
   -2.8579   -4.9500    0.0000 C   0  0  0  0  0  0  0  0  0  0  0  0
   -2.1434   -4.5375    0.0000 O   0  0  0  0  0  0  0  0  0  0  0  0
   -1.4289   -4.9500    0.0000 C   0  0  0  0  0  0  0  0  0  0  0  0
   -1.4289   -5.7750    0.0000 O   0  0  0  0  0  0  0  0  0  0  0  0
   -0.7145   -4.5375    0.0000 C   0  0  0  0  0  0  0  0  0  0  0  0
    0.0000   -4.9500    0.0000 C   0  0  0  0  0  0  0  0  0  0  0  0
    0.7145   -4.5375    0.0000 N   0  0  0  0  0  0  0  0  0  0  0  0
    0.7145   -3.7125    0.0000 C   0  0  0  0  0  0  0  0  0  0  0  0
    1.4289   -3.3000    0.0000 C   0  0  0  0  0  0  0  0  0  0  0  0
    1.4289   -2.4750    0.0000 C   0  0  0  0  0  0  0  0  0  0  0  0
    2.1434   -2.0625    0.0000 C   0  0  0  0  0  0  0  0  0  0  0  0
    2.8579   -2.4750    0.0000 C   0  0  0  0  0  0  0  0  0  0  0  0
    2.8579   -3.3000    0.0000 C   0  0  0  0  0  0  0  0  0  0  0  0
    2.1434   -3.7125    0.0000 C   0  0  0  0  0  0  0  0  0  0  0  0
    0.0000   -3.3000    0.0000 C   0  0  0  0  0  0  0  0  0  0  0  0
   -0.7145   -3.7125    0.0000 C   0  0  0  0  0  0  0  0  0  0  0  0
   -1.4289   -3.3000    0.0000 C   0  0  0  0  0  0  0  0  0  0  0  0
   -1.4289   -2.4750    0.0000 C   0  0  0  0  0  0  0  0  0  0  0  0
   -0.7145   -2.0625    0.0000 C   0  0  0  0  0  0  0  0  0  0  0  0
    0.0000   -2.4750    0.0000 C   0  0  0  0  0  0  0  0  0  0  0  0
    1.4289   -4.9500    0.0000 C   0  0  0  0  0  0  0  0  0  0  0  0
    2.1434   -4.5375    0.0000 O   0  0  0  0  0  0  0  0  0  0  0  0
    1.4289   -5.7750    0.0000 C   0  0  0  0  0  0  0  0  0  0  0  0
    0.7145   -6.1875    0.0000 C   0  0  0  0  0  0  0  0  0  0  0  0
    0.0000   -5.7750    0.0000 C   0  0  0  0  0  0  0  0  0  0  0  0
    0.7145   -7.0125    0.0000 N   0  0  0  0  0  0  0  0  0  0  0  0
    1.4289   -7.4250    0.0000 C   0  0  0  0  0  0  0  0  0  0  0  0
    1.4289   -8.2500    0.0000 S   0  0  0  0  0  0  0  0  0  0  0  0
    2.1434   -7.0125    0.0000 N   0  0  0  0  0  0  0  0  0  0  0  0
    2.1434   -6.1875    0.0000 C   0  0  0  0  0  0  0  0  0  0  0  0
    2.8579   -5.7750    0.0000 C   0  0  0  0  0  0  0  0  0  0  0  0
    2.8579   -4.9500    0.0000 C   0  0  0  0  0  0  0  0  0  0  0  0
    3.5724   -4.5375    0.0000 C   0  0  0  0  0  0  0  0  0  0  0  0
    3.5724   -3.7125    0.0000 O   0  0  0  0  0  0  0  0  0  0  0  0
    4.2868   -4.9500    0.0000 C   0  0  0  0  0  0  0  0  0  0  0  0
    4.2868   -5.7750    0.0000 C   0  0  0  0  0  0  0  0  0  0  0  0
    3.5724   -6.1875    0.0000 C   0  0  0  0  0  0  0  0  0  0  0  0
  1  2  1  0  0  0  0
  2  3  1  0  0  0  0
  3  4  1  0  0  0  0
  4  5  2  0  0  0  0
  4  6  1  0  0  0  0
  6  7  1  0  0  0  0
  7  8  1  0  0  0  0
  8  9  1  0  0  0  0
  9 10  1  0  0  0  0
 10 11  2  0  0  0  0
 11 12  1  0  0  0  0
 12 13  2  0  0  0  0
 13 14  1  0  0  0  0
 14 15  2  0  0  0  0
 10 15  1  0  0  0  0
  9 16  1  0  0  0  0
 16 17  2  0  0  0  0
 17 18  1  0  0  0  0
 18 19  2  0  0  0  0
 19 20  1  0  0  0  0
 20 21  2  0  0  0  0
 16 21  1  0  0  0  0
  8 22  1  0  0  0  0
 22 23  2  0  0  0  0
 22 24  1  0  0  0  0
 24 25  2  0  0  0  0
 25 26  1  0  0  0  0
 25 27  1  0  0  0  0
 27 28  1  0  0  0  0
 28 29  2  0  0  0  0
 28 30  1  0  0  0  0
 30 31  1  0  0  0  0
 24 31  1  0  0  0  0
 31 32  1  0  0  0  0
 32 33  2  0  0  0  0
 33 34  1  0  0  0  0
 34 35  1  0  0  0  0
 34 36  2  0  0  0  0
 36 37  1  0  0  0  0
 37 38  2  0  0  0  0
 32 38  1  0  0  0  0
M  END
> <ID>
CPD_35

$$$$
CPD_40
  Mrv1822 09091914012D          

 30 32  0  0  0  0            999 V2000
    0.8889   -5.5736    0.0000 C   0  0  0  0  0  0  0  0  0  0  0  0
    1.4289   -4.9500    0.0000 C   0  0  0  0  0  0  0  0  0  0  0  0
    2.2391   -5.1059    0.0000 O   0  0  0  0  0  0  0  0  0  0  0  0
    2.7792   -4.4823    0.0000 C   0  0  0  0  0  0  0  0  0  0  0  0
    2.5091   -3.7027    0.0000 O   0  0  0  0  0  0  0  0  0  0  0  0
    3.5893   -4.6382    0.0000 C   0  0  0  0  0  0  0  0  0  0  0  0
    4.1294   -4.0145    0.0000 C   0  0  0  0  0  0  0  0  0  0  0  0
    4.9395   -4.1704    0.0000 N   0  0  0  0  0  0  0  0  0  0  0  0
    5.2605   -3.4104    0.0000 C   0  0  0  0  0  0  0  0  0  0  0  0
    6.0791   -3.3084    0.0000 C   0  0  0  0  0  0  0  0  0  0  0  0
    6.4001   -2.5484    0.0000 C   0  0  0  0  0  0  0  0  0  0  0  0
    7.2187   -2.4463    0.0000 C   0  0  0  0  0  0  0  0  0  0  0  0
    7.7164   -3.1042    0.0000 C   0  0  0  0  0  0  0  0  0  0  0  0
    7.3955   -3.8643    0.0000 C   0  0  0  0  0  0  0  0  0  0  0  0
    6.5768   -3.9663    0.0000 C   0  0  0  0  0  0  0  0  0  0  0  0
    4.7627   -2.7525    0.0000 C   0  0  0  0  0  0  0  0  0  0  0  0
    3.9441   -2.8545    0.0000 C   0  0  0  0  0  0  0  0  0  0  0  0
    3.4464   -2.1966    0.0000 C   0  0  0  0  0  0  0  0  0  0  0  0
    3.7673   -1.4366    0.0000 C   0  0  0  0  0  0  0  0  0  0  0  0
    4.5860   -1.3345    0.0000 C   0  0  0  0  0  0  0  0  0  0  0  0
    5.0837   -1.9925    0.0000 C   0  0  0  0  0  0  0  0  0  0  0  0
    5.2096   -4.9500    0.0000 C   0  0  0  0  0  0  0  0  0  0  0  0
    4.6695   -5.5736    0.0000 O   0  0  0  0  0  0  0  0  0  0  0  0
    6.0197   -5.1059    0.0000 C   0  0  0  0  0  0  0  0  0  0  0  0
    6.5598   -4.4823    0.0000 C   0  0  0  0  0  0  0  0  0  0  0  0
    7.3699   -4.6382    0.0000 C   0  0  0  0  0  0  0  0  0  0  0  0
    7.6400   -5.4177    0.0000 N   0  0  0  0  0  0  0  0  0  0  0  0
    7.0999   -6.0414    0.0000 C   0  0  0  0  0  0  0  0  0  0  0  0
    6.2897   -5.8855    0.0000 C   0  0  0  0  0  0  0  0  0  0  0  0
    5.7497   -6.5091    0.0000 F   0  0  0  0  0  0  0  0  0  0  0  0
  1  2  1  0  0  0  0
  2  3  1  0  0  0  0
  3  4  1  0  0  0  0
  4  5  2  0  0  0  0
  4  6  1  0  0  0  0
  6  7  1  0  0  0  0
  7  8  1  0  0  0  0
  8  9  1  0  0  0  0
  9 10  1  0  0  0  0
 10 11  2  0  0  0  0
 11 12  1  0  0  0  0
 12 13  2  0  0  0  0
 13 14  1  0  0  0  0
 14 15  2  0  0  0  0
 10 15  1  0  0  0  0
  9 16  1  0  0  0  0
 16 17  2  0  0  0  0
 17 18  1  0  0  0  0
 18 19  2  0  0  0  0
 19 20  1  0  0  0  0
 20 21  2  0  0  0  0
 16 21  1  0  0  0  0
  8 22  1  0  0  0  0
 22 23  2  0  0  0  0
 22 24  1  0  0  0  0
 24 25  1  0  0  0  0
 25 26  1  0  0  0  0
 26 27  1  0  0  0  0
 27 28  1  0  0  0  0
 28 29  1  0  0  0  0
 24 29  1  0  0  0  0
 29 30  1  0  0  0  0
M  END
> <ID>
CPD_40

$$$$
CPD_45
  Mrv1822 09091914012D          

 33 35  0  0  0  0            999 V2000
    0.8889   -5.5736    0.0000 C   0  0  0  0  0  0  0  0  0  0  0  0
    1.4289   -4.9500    0.0000 C   0  0  0  0  0  0  0  0  0  0  0  0
    2.2391   -5.1059    0.0000 O   0  0  0  0  0  0  0  0  0  0  0  0
    2.7792   -4.4823    0.0000 C   0  0  0  0  0  0  0  0  0  0  0  0
    2.5091   -3.7027    0.0000 O   0  0  0  0  0  0  0  0  0  0  0  0
    3.5893   -4.6382    0.0000 C   0  0  0  0  0  0  0  0  0  0  0  0
    4.1294   -4.0145    0.0000 C   0  0  0  0  0  0  0  0  0  0  0  0
    4.9395   -4.1704    0.0000 N   0  0  0  0  0  0  0  0  0  0  0  0
    5.2605   -3.4104    0.0000 C   0  0  0  0  0  0  0  0  0  0  0  0
    6.0791   -3.3084    0.0000 C   0  0  0  0  0  0  0  0  0  0  0  0
    6.4001   -2.5484    0.0000 C   0  0  0  0  0  0  0  0  0  0  0  0
    7.2187   -2.4463    0.0000 C   0  0  0  0  0  0  0  0  0  0  0  0
    7.7164   -3.1042    0.0000 C   0  0  0  0  0  0  0  0  0  0  0  0
    7.3955   -3.8643    0.0000 C   0  0  0  0  0  0  0  0  0  0  0  0
    6.5768   -3.9663    0.0000 C   0  0  0  0  0  0  0  0  0  0  0  0
    4.7627   -2.7525    0.0000 C   0  0  0  0  0  0  0  0  0  0  0  0
    3.9441   -2.8545    0.0000 C   0  0  0  0  0  0  0  0  0  0  0  0
    3.4464   -2.1966    0.0000 C   0  0  0  0  0  0  0  0  0  0  0  0
    3.7673   -1.4366    0.0000 C   0  0  0  0  0  0  0  0  0  0  0  0
    4.5860   -1.3345    0.0000 C   0  0  0  0  0  0  0  0  0  0  0  0
    5.0837   -1.9925    0.0000 C   0  0  0  0  0  0  0  0  0  0  0  0
    5.2096   -4.9500    0.0000 C   0  0  0  0  0  0  0  0  0  0  0  0
    4.6695   -5.5736    0.0000 O   0  0  0  0  0  0  0  0  0  0  0  0
    6.0197   -5.1059    0.0000 C   0  0  0  0  0  0  0  0  0  0  0  0
    6.5598   -4.4823    0.0000 C   0  0  0  0  0  0  0  0  0  0  0  0
    7.3699   -4.6382    0.0000 C   0  0  0  0  0  0  0  0  0  0  0  0
    7.6400   -5.4177    0.0000 C   0  0  0  0  0  0  0  0  0  0  0  0
    7.0999   -6.0414    0.0000 N   0  0  0  0  0  0  0  0  0  0  0  0
    6.2897   -5.8855    0.0000 C   0  0  0  0  0  0  0  0  0  0  0  0
    5.7497   -6.5091    0.0000 C   0  0  0  0  0  0  0  0  0  0  0  0
    5.2096   -7.1327    0.0000 F   0  0  0  0  0  0  0  0  0  0  0  0
    5.1260   -5.9690    0.0000 F   0  0  0  0  0  0  0  0  0  0  0  0
    6.3733   -7.0492    0.0000 F   0  0  0  0  0  0  0  0  0  0  0  0
  1  2  1  0  0  0  0
  2  3  1  0  0  0  0
  3  4  1  0  0  0  0
  4  5  2  0  0  0  0
  4  6  1  0  0  0  0
  6  7  1  0  0  0  0
  7  8  1  0  0  0  0
  8  9  1  0  0  0  0
  9 10  1  0  0  0  0
 10 11  2  0  0  0  0
 11 12  1  0  0  0  0
 12 13  2  0  0  0  0
 13 14  1  0  0  0  0
 14 15  2  0  0  0  0
 10 15  1  0  0  0  0
  9 16  1  0  0  0  0
 16 17  2  0  0  0  0
 17 18  1  0  0  0  0
 18 19  2  0  0  0  0
 19 20  1  0  0  0  0
 20 21  2  0  0  0  0
 16 21  1  0  0  0  0
  8 22  1  0  0  0  0
 22 23  2  0  0  0  0
 22 24  1  0  0  0  0
 24 25  2  0  0  0  0
 25 26  1  0  0  0  0
 26 27  2  0  0  0  0
 27 28  1  0  0  0  0
 28 29  2  0  0  0  0
 24 29  1  0  0  0  0
 29 30  1  0  0  0  0
 30 31  1  0  0  0  0
 30 32  1  0  0  0  0
 30 33  1  0  0  0  0
M  END
> <ID>
CPD_45

$$$$
CPD_50
  Mrv1822 09091914012D          

 24 26  0  0  1  0            999 V2000
    4.6254    0.1631    0.0000 C   0  0  0  0  0  0  0  0  0  0  0  0
    3.9109    0.5756    0.0000 N   0  0  0  0  0  0  0  0  0  0  0  0
    3.1964    0.1631    0.0000 C   0  0  0  0  0  0  0  0  0  0  0  0
    3.9109    1.4006    0.0000 C   0  0  0  0  0  0  0  0  0  0  0  0
    4.6254    1.8131    0.0000 C   0  0  1  0  0  0  0  0  0  0  0  0
    5.3399    1.4006    0.0000 N   0  0  0  0  0  0  0  0  0  0  0  0
    5.3399    0.5756    0.0000 C   0  0  0  0  0  0  0  0  0  0  0  0
    5.0043   -0.1780    0.0000 O   0  0  0  0  0  0  0  0  0  0  0  0
    6.0543    0.1631    0.0000 C   0  0  0  0  0  0  0  0  0  0  0  0
    6.8080    0.4987    0.0000 C   0  0  0  0  0  0  0  0  0  0  0  0
    7.3600   -0.1144    0.0000 N   0  0  0  0  0  0  0  0  0  0  0  0
    6.9475   -0.8289    0.0000 C   0  0  0  0  0  0  0  0  0  0  0  0
    7.2025   -1.6135    0.0000 C   0  0  0  0  0  0  0  0  0  0  0  0
    6.6504   -2.2266    0.0000 C   0  0  0  0  0  0  0  0  0  0  0  0
    5.8435   -2.0551    0.0000 C   0  0  0  0  0  0  0  0  0  0  0  0
    5.2914   -2.6681    0.0000 Cl  0  0  0  0  0  0  0  0  0  0  0  0
    5.5885   -1.2704    0.0000 C   0  0  0  0  0  0  0  0  0  0  0  0
    6.1406   -0.6573    0.0000 N   0  0  0  0  0  0  0  0  0  0  0  0
    4.6254    2.6381    0.0000 C   0  0  0  0  0  0  0  0  0  0  0  0
    3.9109    3.0506    0.0000 C   0  0  0  0  0  0  0  0  0  0  0  0
    3.9109    3.8756    0.0000 C   0  0  0  0  0  0  0  0  0  0  0  0
    4.6254    4.2881    0.0000 C   0  0  0  0  0  0  0  0  0  0  0  0
    5.3399    3.8756    0.0000 C   0  0  0  0  0  0  0  0  0  0  0  0
    5.3399    3.0506    0.0000 C   0  0  0  0  0  0  0  0  0  0  0  0
  1  2  1  0  0  0  0
  2  3  1  0  0  0  0
  2  4  1  0  0  0  0
  5  4  1  0  0  0  0
  5  6  1  6  0  0  0
  6  7  1  0  0  0  0
  7  8  2  0  0  0  0
  7  9  1  0  0  0  0
  9 10  2  0  0  0  0
 10 11  1  0  0  0  0
 11 12  2  0  0  0  0
 12 13  1  0  0  0  0
 13 14  2  0  0  0  0
 14 15  1  0  0  0  0
 15 16  1  0  0  0  0
 15 17  2  0  0  0  0
 17 18  1  0  0  0  0
  9 18  1  0  0  0  0
 12 18  1  0  0  0  0
  5 19  1  0  0  0  0
 19 20  2  0  0  0  0
 20 21  1  0  0  0  0
 21 22  2  0  0  0  0
 22 23  1  0  0  0  0
 23 24  2  0  0  0  0
 19 24  1  0  0  0  0
M  END
> <ID>
CPD_50

$$$$
CPD_55
  Mrv1822 09091914012D          

 26 28  0  0  1  0            999 V2000
   -2.0646   -1.2346    0.0000 C   0  0  0  0  0  0  0  0  0  0  0  0
   -2.7791   -0.8221    0.0000 N   0  0  0  0  0  0  0  0  0  0  0  0
   -3.4935   -1.2346    0.0000 C   0  0  0  0  0  0  0  0  0  0  0  0
   -2.7791    0.0029    0.0000 C   0  0  0  0  0  0  0  0  0  0  0  0
   -2.0646    0.4154    0.0000 C   0  0  1  0  0  0  0  0  0  0  0  0
   -1.3501    0.0029    0.0000 N   0  0  0  0  0  0  0  0  0  0  0  0
   -1.3501   -0.8221    0.0000 C   0  0  0  0  0  0  0  0  0  0  0  0
   -1.6857   -1.5757    0.0000 O   0  0  0  0  0  0  0  0  0  0  0  0
   -0.6357   -1.2346    0.0000 C   0  0  0  0  0  0  0  0  0  0  0  0
   -0.5494   -2.0551    0.0000 C   0  0  0  0  0  0  0  0  0  0  0  0
   -1.1625   -2.6071    0.0000 C   0  0  0  0  0  0  0  0  0  0  0  0
    0.2575   -2.2266    0.0000 N   0  0  0  0  0  0  0  0  0  0  0  0
    0.6700   -1.5121    0.0000 C   0  0  0  0  0  0  0  0  0  0  0  0
    0.1180   -0.8990    0.0000 C   0  0  0  0  0  0  0  0  0  0  0  0
    0.3730   -0.1144    0.0000 C   0  0  0  0  0  0  0  0  0  0  0  0
   -0.1791    0.4987    0.0000 F   0  0  0  0  0  0  0  0  0  0  0  0
    1.1799    0.0571    0.0000 C   0  0  0  0  0  0  0  0  0  0  0  0
    1.4349    0.8418    0.0000 F   0  0  0  0  0  0  0  0  0  0  0  0
    1.7320   -0.5560    0.0000 C   0  0  0  0  0  0  0  0  0  0  0  0
    1.4770   -1.3406    0.0000 C   0  0  0  0  0  0  0  0  0  0  0  0
   -2.0646    1.2404    0.0000 C   0  0  0  0  0  0  0  0  0  0  0  0
   -2.7791    1.6529    0.0000 C   0  0  0  0  0  0  0  0  0  0  0  0
   -2.7791    2.4779    0.0000 C   0  0  0  0  0  0  0  0  0  0  0  0
   -2.0646    2.8904    0.0000 C   0  0  0  0  0  0  0  0  0  0  0  0
   -1.3501    2.4779    0.0000 C   0  0  0  0  0  0  0  0  0  0  0  0
   -1.3501    1.6529    0.0000 C   0  0  0  0  0  0  0  0  0  0  0  0
  1  2  1  0  0  0  0
  2  3  1  0  0  0  0
  2  4  1  0  0  0  0
  5  4  1  0  0  0  0
  5  6  1  6  0  0  0
  6  7  1  0  0  0  0
  7  8  2  0  0  0  0
  7  9  1  0  0  0  0
  9 10  2  0  0  0  0
 10 11  1  0  0  0  0
 10 12  1  0  0  0  0
 12 13  1  0  0  0  0
 13 14  2  0  0  0  0
  9 14  1  0  0  0  0
 14 15  1  0  0  0  0
 15 16  1  0  0  0  0
 15 17  2  0  0  0  0
 17 18  1  0  0  0  0
 17 19  1  0  0  0  0
 19 20  2  0  0  0  0
 13 20  1  0  0  0  0
  5 21  1  0  0  0  0
 21 22  2  0  0  0  0
 22 23  1  0  0  0  0
 23 24  2  0  0  0  0
 24 25  1  0  0  0  0
 25 26  2  0  0  0  0
 21 26  1  0  0  0  0
M  END
> <ID>
CPD_55

$$$$
CPD_60
  Mrv1822 09091914012D          

 29 31  0  0  1  0            999 V2000
    0.7145    1.2375    0.0000 C   0  0  0  0  0  0  0  0  0  0  0  0
    0.7145    0.4125    0.0000 C   0  0  0  0  0  0  0  0  0  0  0  0
    0.0000    0.0000    0.0000 C   0  0  0  0  0  0  0  0  0  0  0  0
    0.0000   -0.8250    0.0000 N   0  0  0  0  0  0  0  0  0  0  0  0
    0.7145   -1.2375    0.0000 C   0  0  0  0  0  0  0  0  0  0  0  0
    0.7145   -2.0625    0.0000 C   0  0  0  0  0  0  0  0  0  0  0  0
    1.4289   -2.4750    0.0000 C   0  0  0  0  0  0  0  0  0  0  0  0
    2.1434   -2.0625    0.0000 O   0  0  0  0  0  0  0  0  0  0  0  0
    1.4289   -3.3000    0.0000 N   0  0  0  0  0  0  0  0  0  0  0  0
    2.1434   -3.7125    0.0000 C   0  0  2  0  0  0  0  0  0  0  0  0
    2.8579   -3.3000    0.0000 C   0  0  0  0  0  0  0  0  0  0  0  0
    2.8579   -2.4750    0.0000 N   0  0  0  0  0  0  0  0  0  0  0  0
    2.5223   -1.7213    0.0000 C   0  0  0  0  0  0  0  0  0  0  0  0
    3.5724   -2.0625    0.0000 C   0  0  0  0  0  0  0  0  0  0  0  0
    2.1434   -4.5375    0.0000 C   0  0  0  0  0  0  0  0  0  0  0  0
    2.8579   -4.9500    0.0000 C   0  0  0  0  0  0  0  0  0  0  0  0
    2.8579   -5.7750    0.0000 C   0  0  0  0  0  0  0  0  0  0  0  0
    2.1434   -6.1875    0.0000 C   0  0  0  0  0  0  0  0  0  0  0  0
    1.4289   -5.7750    0.0000 C   0  0  0  0  0  0  0  0  0  0  0  0
    1.4289   -4.9500    0.0000 C   0  0  0  0  0  0  0  0  0  0  0  0
    0.0000   -2.4750    0.0000 C   0  0  0  0  0  0  0  0  0  0  0  0
    0.0000   -3.3000    0.0000 O   0  0  0  0  0  0  0  0  0  0  0  0
   -0.7145   -2.0625    0.0000 C   0  0  0  0  0  0  0  0  0  0  0  0
   -1.4289   -2.4750    0.0000 C   0  0  0  0  0  0  0  0  0  0  0  0
   -2.1434   -2.0625    0.0000 C   0  0  0  0  0  0  0  0  0  0  0  0
   -2.8579   -2.4750    0.0000 C   0  0  0  0  0  0  0  0  0  0  0  0
   -2.1434   -1.2375    0.0000 C   0  0  0  0  0  0  0  0  0  0  0  0
   -1.4289   -0.8250    0.0000 C   0  0  0  0  0  0  0  0  0  0  0  0
   -0.7145   -1.2375    0.0000 C   0  0  0  0  0  0  0  0  0  0  0  0
  1  2  1  0  0  0  0
  2  3  1  0  0  0  0
  3  4  1  0  0  0  0
  4  5  1  0  0  0  0
  5  6  2  0  0  0  0
  6  7  1  0  0  0  0
  7  8  2  0  0  0  0
  7  9  1  0  0  0  0
 10  9  1  6  0  0  0
 10 11  1  0  0  0  0
 11 12  1  0  0  0  0
 12 13  1  0  0  0  0
 12 14  1  0  0  0  0
 10 15  1  0  0  0  0
 15 16  2  0  0  0  0
 16 17  1  0  0  0  0
 17 18  2  0  0  0  0
 18 19  1  0  0  0  0
 19 20  2  0  0  0  0
 15 20  1  0  0  0  0
  6 21  1  0  0  0  0
 21 22  2  0  0  0  0
 21 23  1  0  0  0  0
 23 24  2  0  0  0  0
 24 25  1  0  0  0  0
 25 26  1  0  0  0  0
 25 27  2  0  0  0  0
 27 28  1  0  0  0  0
 28 29  2  0  0  0  0
  4 29  1  0  0  0  0
 23 29  1  0  0  0  0
M  END
> <ID>
CPD_60

$$$$
CPD_65
  Mrv1822 09091914012D          

 24 24  0  0  1  0            999 V2000
   -7.1447   -1.6500    0.0000 C   0  0  0  0  0  0  0  0  0  0  0  0
   -6.4302   -1.2375    0.0000 C   0  0  0  0  0  0  0  0  0  0  0  0
   -5.7158   -1.6500    0.0000 O   0  0  0  0  0  0  0  0  0  0  0  0
   -5.0013   -1.2375    0.0000 C   0  0  0  0  0  0  0  0  0  0  0  0
   -4.2868   -1.6500    0.0000 C   0  0  0  0  0  0  0  0  0  0  0  0
   -3.5724   -1.2375    0.0000 C   0  0  0  0  0  0  0  0  0  0  0  0
   -2.8579   -1.6500    0.0000 N   0  0  0  0  0  0  0  0  0  0  0  0
   -2.1434   -1.2375    0.0000 C   0  0  0  0  0  0  0  0  0  0  0  0
   -2.1434   -0.4125    0.0000 C   0  0  0  0  0  0  0  0  0  0  0  0
   -1.4289   -1.6500    0.0000 C   0  0  0  0  0  0  0  0  0  0  0  0
   -0.7145   -1.2375    0.0000 C   0  0  0  0  0  0  0  0  0  0  0  0
   -0.7145   -0.4125    0.0000 O   0  0  0  0  0  0  0  0  0  0  0  0
    0.0000   -1.6500    0.0000 N   0  0  0  0  0  0  0  0  0  0  0  0
    0.7145   -1.2375    0.0000 C   0  0  2  0  0  0  0  0  0  0  0  0
    1.4289   -1.6500    0.0000 C   0  0  0  0  0  0  0  0  0  0  0  0
    2.1434   -1.2375    0.0000 N   0  0  0  0  0  0  0  0  0  0  0  0
    2.1434   -0.4125    0.0000 C   0  0  0  0  0  0  0  0  0  0  0  0
    2.8579   -1.6500    0.0000 C   0  0  0  0  0  0  0  0  0  0  0  0
    0.7145   -0.4125    0.0000 C   0  0  0  0  0  0  0  0  0  0  0  0
    0.0000   -0.0000    0.0000 C   0  0  0  0  0  0  0  0  0  0  0  0
    0.0000    0.8250    0.0000 C   0  0  0  0  0  0  0  0  0  0  0  0
    0.7145    1.2375    0.0000 C   0  0  0  0  0  0  0  0  0  0  0  0
    1.4289    0.8250    0.0000 C   0  0  0  0  0  0  0  0  0  0  0  0
    1.4289   -0.0000    0.0000 C   0  0  0  0  0  0  0  0  0  0  0  0
  1  2  1  0  0  0  0
  2  3  1  0  0  0  0
  3  4  1  0  0  0  0
  4  5  1  0  0  0  0
  5  6  1  0  0  0  0
  6  7  1  0  0  0  0
  7  8  1  0  0  0  0
  8  9  1  0  0  0  0
  8 10  1  0  0  0  0
 10 11  1  0  0  0  0
 11 12  2  0  0  0  0
 11 13  1  0  0  0  0
 14 13  1  1  0  0  0
 14 15  1  0  0  0  0
 15 16  1  0  0  0  0
 16 17  1  0  0  0  0
 16 18  1  0  0  0  0
 14 19  1  0  0  0  0
 19 20  2  0  0  0  0
 20 21  1  0  0  0  0
 21 22  2  0  0  0  0
 22 23  1  0  0  0  0
 23 24  2  0  0  0  0
 19 24  1  0  0  0  0
M  END
> <ID>
CPD_65

$$$$
CPD_70
  Mrv1822 09091914012D          

 33 35  0  0  0  0            999 V2000
    1.3184   -3.7125    0.0000 C   0  0  0  0  0  0  0  0  0  0  0  0
    2.1434   -3.7125    0.0000 C   0  0  0  0  0  0  0  0  0  0  0  0
    2.5559   -4.4270    0.0000 O   0  0  0  0  0  0  0  0  0  0  0  0
    3.3809   -4.4270    0.0000 C   0  0  0  0  0  0  0  0  0  0  0  0
    3.7934   -3.7125    0.0000 O   0  0  0  0  0  0  0  0  0  0  0  0
    3.7934   -5.1414    0.0000 C   0  0  0  0  0  0  0  0  0  0  0  0
    4.6184   -5.1414    0.0000 C   0  0  0  0  0  0  0  0  0  0  0  0
    5.0309   -4.4270    0.0000 N   0  0  0  0  0  0  0  0  0  0  0  0
    4.6184   -3.7125    0.0000 C   0  0  0  0  0  0  0  0  0  0  0  0
    3.9510   -3.2276    0.0000 O   0  0  0  0  0  0  0  0  0  0  0  0
    5.0309   -2.9980    0.0000 C   0  0  0  0  0  0  0  0  0  0  0  0
    4.6184   -2.2836    0.0000 C   0  0  0  0  0  0  0  0  0  0  0  0
    5.0309   -1.5691    0.0000 N   0  0  0  0  0  0  0  0  0  0  0  0
    5.8559   -1.5691    0.0000 C   0  0  0  0  0  0  0  0  0  0  0  0
    6.2684   -2.2836    0.0000 C   0  0  0  0  0  0  0  0  0  0  0  0
    5.8559   -2.9980    0.0000 C   0  0  0  0  0  0  0  0  0  0  0  0
    6.2684   -0.8546    0.0000 C   0  0  0  0  0  0  0  0  0  0  0  0
    5.8559   -0.1401    0.0000 C   0  0  0  0  0  0  0  0  0  0  0  0
    6.2684    0.5743    0.0000 C   0  0  0  0  0  0  0  0  0  0  0  0
    5.8559    1.2888    0.0000 O   0  0  0  0  0  0  0  0  0  0  0  0
    5.0309    1.2888    0.0000 C   0  0  0  0  0  0  0  0  0  0  0  0
    7.0934    0.5743    0.0000 C   0  0  0  0  0  0  0  0  0  0  0  0
    7.5059   -0.1401    0.0000 C   0  0  0  0  0  0  0  0  0  0  0  0
    7.0934   -0.8546    0.0000 C   0  0  0  0  0  0  0  0  0  0  0  0
    5.0309   -5.8559    0.0000 C   0  0  0  0  0  0  0  0  0  0  0  0
    5.8559   -5.8559    0.0000 C   0  0  0  0  0  0  0  0  0  0  0  0
    6.2684   -5.1414    0.0000 O   0  0  0  0  0  0  0  0  0  0  0  0
    7.0934   -5.1414    0.0000 C   0  0  0  0  0  0  0  0  0  0  0  0
    6.2684   -6.5704    0.0000 C   0  0  0  0  0  0  0  0  0  0  0  0
    5.8559   -7.2849    0.0000 C   0  0  0  0  0  0  0  0  0  0  0  0
    5.0309   -7.2849    0.0000 C   0  0  0  0  0  0  0  0  0  0  0  0
    4.6184   -7.9993    0.0000 Cl  0  0  0  0  0  0  0  0  0  0  0  0
    4.6184   -6.5704    0.0000 C   0  0  0  0  0  0  0  0  0  0  0  0
  1  2  1  0  0  0  0
  2  3  1  0  0  0  0
  3  4  1  0  0  0  0
  4  5  2  0  0  0  0
  4  6  1  0  0  0  0
  6  7  1  0  0  0  0
  7  8  1  0  0  0  0
  8  9  1  0  0  0  0
  9 10  2  0  0  0  0
  9 11  1  0  0  0  0
 11 12  2  0  0  0  0
 12 13  1  0  0  0  0
 13 14  2  0  0  0  0
 14 15  1  0  0  0  0
 15 16  2  0  0  0  0
 11 16  1  0  0  0  0
 14 17  1  0  0  0  0
 17 18  2  0  0  0  0
 18 19  1  0  0  0  0
 19 20  1  0  0  0  0
 20 21  1  0  0  0  0
 19 22  2  0  0  0  0
 22 23  1  0  0  0  0
 23 24  2  0  0  0  0
 17 24  1  0  0  0  0
  7 25  1  0  0  0  0
 25 26  2  0  0  0  0
 26 27  1  0  0  0  0
 27 28  1  0  0  0  0
 26 29  1  0  0  0  0
 29 30  2  0  0  0  0
 30 31  1  0  0  0  0
 31 32  1  0  0  0  0
 31 33  2  0  0  0  0
 25 33  1  0  0  0  0
M  END
> <ID>
CPD_70

$$$$
CPD_75
  Mrv1822 09091914012D          

 36 38  0  0  0  0            999 V2000
    1.3184   -3.7125    0.0000 C   0  0  0  0  0  0  0  0  0  0  0  0
    2.1434   -3.7125    0.0000 C   0  0  0  0  0  0  0  0  0  0  0  0
    2.5559   -4.4270    0.0000 O   0  0  0  0  0  0  0  0  0  0  0  0
    3.3809   -4.4270    0.0000 C   0  0  0  0  0  0  0  0  0  0  0  0
    3.7934   -3.7125    0.0000 O   0  0  0  0  0  0  0  0  0  0  0  0
    3.7934   -5.1414    0.0000 C   0  0  0  0  0  0  0  0  0  0  0  0
    4.6184   -5.1414    0.0000 C   0  0  0  0  0  0  0  0  0  0  0  0
    5.0309   -4.4270    0.0000 N   0  0  0  0  0  0  0  0  0  0  0  0
    4.6184   -3.7125    0.0000 C   0  0  0  0  0  0  0  0  0  0  0  0
    3.9510   -3.2276    0.0000 O   0  0  0  0  0  0  0  0  0  0  0  0
    5.0309   -2.9980    0.0000 C   0  0  0  0  0  0  0  0  0  0  0  0
    4.6184   -2.2836    0.0000 C   0  0  0  0  0  0  0  0  0  0  0  0
    5.0309   -1.5691    0.0000 C   0  0  0  0  0  0  0  0  0  0  0  0
    5.8559   -1.5691    0.0000 C   0  0  0  0  0  0  0  0  0  0  0  0
    6.2684   -0.8546    0.0000 N   0  0  0  0  0  0  0  0  0  0  0  0
    5.8559   -0.1401    0.0000 S   0  0  0  0  0  0  0  0  0  0  0  0
    6.5704    0.2724    0.0000 O   0  0  0  0  0  0  0  0  0  0  0  0
    5.1414   -0.5526    0.0000 O   0  0  0  0  0  0  0  0  0  0  0  0
    5.4434    0.5743    0.0000 C   0  0  0  0  0  0  0  0  0  0  0  0
    4.6184    0.5743    0.0000 C   0  0  0  0  0  0  0  0  0  0  0  0
    4.2059    1.2888    0.0000 C   0  0  0  0  0  0  0  0  0  0  0  0
    4.6184    2.0033    0.0000 C   0  0  0  0  0  0  0  0  0  0  0  0
    5.4434    2.0033    0.0000 C   0  0  0  0  0  0  0  0  0  0  0  0
    5.8559    1.2888    0.0000 C   0  0  0  0  0  0  0  0  0  0  0  0
    6.2684   -2.2836    0.0000 C   0  0  0  0  0  0  0  0  0  0  0  0
    5.8559   -2.9980    0.0000 C   0  0  0  0  0  0  0  0  0  0  0  0
    6.2684   -3.7125    0.0000 O   0  0  0  0  0  0  0  0  0  0  0  0
    5.0309   -5.8559    0.0000 C   0  0  0  0  0  0  0  0  0  0  0  0
    5.8559   -5.8559    0.0000 C   0  0  0  0  0  0  0  0  0  0  0  0
    6.2684   -5.1414    0.0000 O   0  0  0  0  0  0  0  0  0  0  0  0
    7.0934   -5.1414    0.0000 C   0  0  0  0  0  0  0  0  0  0  0  0
    6.2684   -6.5704    0.0000 C   0  0  0  0  0  0  0  0  0  0  0  0
    5.8559   -7.2849    0.0000 C   0  0  0  0  0  0  0  0  0  0  0  0
    5.0309   -7.2849    0.0000 C   0  0  0  0  0  0  0  0  0  0  0  0
    4.6184   -7.9993    0.0000 Cl  0  0  0  0  0  0  0  0  0  0  0  0
    4.6184   -6.5704    0.0000 C   0  0  0  0  0  0  0  0  0  0  0  0
  1  2  1  0  0  0  0
  2  3  1  0  0  0  0
  3  4  1  0  0  0  0
  4  5  2  0  0  0  0
  4  6  1  0  0  0  0
  6  7  1  0  0  0  0
  7  8  1  0  0  0  0
  8  9  1  0  0  0  0
  9 10  2  0  0  0  0
  9 11  1  0  0  0  0
 11 12  2  0  0  0  0
 12 13  1  0  0  0  0
 13 14  2  0  0  0  0
 14 15  1  0  0  0  0
 15 16  1  0  0  0  0
 16 17  2  0  0  0  0
 16 18  2  0  0  0  0
 16 19  1  0  0  0  0
 19 20  2  0  0  0  0
 20 21  1  0  0  0  0
 21 22  2  0  0  0  0
 22 23  1  0  0  0  0
 23 24  2  0  0  0  0
 19 24  1  0  0  0  0
 14 25  1  0  0  0  0
 25 26  2  0  0  0  0
 11 26  1  0  0  0  0
 26 27  1  0  0  0  0
  7 28  1  0  0  0  0
 28 29  2  0  0  0  0
 29 30  1  0  0  0  0
 30 31  1  0  0  0  0
 29 32  1  0  0  0  0
 32 33  2  0  0  0  0
 33 34  1  0  0  0  0
 34 35  1  0  0  0  0
 34 36  2  0  0  0  0
 28 36  1  0  0  0  0
M  END
> <ID>
CPD_75

$$$$
CPD_80
  Mrv1822 09091914012D          

 28 32  0  0  0  0            999 V2000
    5.3649   -0.3020    0.0000 C   0  0  0  0  0  0  0  0  0  0  0  0
    4.9524    0.4125    0.0000 N   0  0  0  0  0  0  0  0  0  0  0  0
    5.3649    1.1270    0.0000 C   0  0  0  0  0  0  0  0  0  0  0  0
    4.9524    1.8414    0.0000 O   0  0  0  0  0  0  0  0  0  0  0  0
    6.1899    1.1270    0.0000 C   0  0  0  0  0  0  0  0  0  0  0  0
    6.6749    0.4595    0.0000 C   0  0  0  0  0  0  0  0  0  0  0  0
    7.4595    0.7145    0.0000 C   0  0  0  0  0  0  0  0  0  0  0  0
    7.4595    1.5395    0.0000 C   0  0  0  0  0  0  0  0  0  0  0  0
    6.6749    1.7944    0.0000 N   0  0  0  0  0  0  0  0  0  0  0  0
    8.1739    1.9520    0.0000 C   0  0  0  0  0  0  0  0  0  0  0  0
    8.8884    1.5395    0.0000 C   0  0  0  0  0  0  0  0  0  0  0  0
    8.8884    0.7145    0.0000 C   0  0  0  0  0  0  0  0  0  0  0  0
    8.1739    0.3020    0.0000 N   0  0  0  0  0  0  0  0  0  0  0  0
    4.1274    0.4125    0.0000 C   0  0  0  0  0  0  0  0  0  0  0  0
    3.6425   -0.2549    0.0000 N   0  0  0  0  0  0  0  0  0  0  0  0
    2.8579   -0.0000    0.0000 C   0  0  0  0  0  0  0  0  0  0  0  0
    2.8579    0.8250    0.0000 C   0  0  0  0  0  0  0  0  0  0  0  0
    3.6425    1.0799    0.0000 S   0  0  0  0  0  0  0  0  0  0  0  0
    2.1434    1.2375    0.0000 C   0  0  0  0  0  0  0  0  0  0  0  0
    2.1434    2.0625    0.0000 O   0  0  0  0  0  0  0  0  0  0  0  0
    1.4289    0.8250    0.0000 C   0  0  0  0  0  0  0  0  0  0  0  0
    1.4289    0.0000    0.0000 C   0  0  0  0  0  0  0  0  0  0  0  0
    0.7145   -0.4125    0.0000 C   0  0  0  0  0  0  0  0  0  0  0  0
    0.0000   -0.0000    0.0000 C   0  0  0  0  0  0  0  0  0  0  0  0
    0.0000    0.8250    0.0000 C   0  0  0  0  0  0  0  0  0  0  0  0
    0.7145    1.2375    0.0000 C   0  0  0  0  0  0  0  0  0  0  0  0
    2.1434   -0.4125    0.0000 C   0  0  0  0  0  0  0  0  0  0  0  0
    2.1434   -1.2375    0.0000 O   0  0  0  0  0  0  0  0  0  0  0  0
  1  2  1  0  0  0  0
  2  3  1  0  0  0  0
  3  4  2  0  0  0  0
  3  5  1  0  0  0  0
  5  6  2  0  0  0  0
  6  7  1  0  0  0  0
  7  8  2  0  0  0  0
  8  9  1  0  0  0  0
  5  9  1  0  0  0  0
  8 10  1  0  0  0  0
 10 11  2  0  0  0  0
 11 12  1  0  0  0  0
 12 13  2  0  0  0  0
  7 13  1  0  0  0  0
  2 14  1  0  0  0  0
 14 15  2  0  0  0  0
 15 16  1  0  0  0  0
 16 17  2  0  0  0  0
 17 18  1  0  0  0  0
 14 18  1  0  0  0  0
 17 19  1  0  0  0  0
 19 20  2  0  0  0  0
 19 21  1  0  0  0  0
 21 22  2  0  0  0  0
 22 23  1  0  0  0  0
 23 24  2  0  0  0  0
 24 25  1  0  0  0  0
 25 26  2  0  0  0  0
 21 26  1  0  0  0  0
 22 27  1  0  0  0  0
 16 27  1  0  0  0  0
 27 28  2  0  0  0  0
M  END
> <ID>
CPD_80

$$$$
CPD_85
  Mrv1822 09091914012D          

 30 33  0  0  0  0            999 V2000
    9.0774   -1.0164    0.0000 C   0  0  0  0  0  0  0  0  0  0  0  0
    8.6649   -0.3020    0.0000 C   0  0  0  0  0  0  0  0  0  0  0  0
    7.8399   -0.3020    0.0000 O   0  0  0  0  0  0  0  0  0  0  0  0
    7.4274    0.4125    0.0000 C   0  0  0  0  0  0  0  0  0  0  0  0
    6.6024    0.4125    0.0000 C   0  0  0  0  0  0  0  0  0  0  0  0
    6.1899   -0.3020    0.0000 F   0  0  0  0  0  0  0  0  0  0  0  0
    6.1899    1.1270    0.0000 C   0  0  0  0  0  0  0  0  0  0  0  0
    6.6024    1.8414    0.0000 C   0  0  0  0  0  0  0  0  0  0  0  0
    7.4274    1.8414    0.0000 C   0  0  0  0  0  0  0  0  0  0  0  0
    7.8399    1.1270    0.0000 C   0  0  0  0  0  0  0  0  0  0  0  0
    8.6649    1.1270    0.0000 Cl  0  0  0  0  0  0  0  0  0  0  0  0
    5.3649    1.1270    0.0000 C   0  0  0  0  0  0  0  0  0  0  0  0
    4.9524    1.8414    0.0000 O   0  0  0  0  0  0  0  0  0  0  0  0
    4.9524    0.4125    0.0000 N   0  0  0  0  0  0  0  0  0  0  0  0
    5.3649   -0.3020    0.0000 C   0  0  0  0  0  0  0  0  0  0  0  0
    4.1274    0.4125    0.0000 C   0  0  0  0  0  0  0  0  0  0  0  0
    3.6425   -0.2549    0.0000 N   0  0  0  0  0  0  0  0  0  0  0  0
    2.8579   -0.0000    0.0000 C   0  0  0  0  0  0  0  0  0  0  0  0
    2.8579    0.8250    0.0000 C   0  0  0  0  0  0  0  0  0  0  0  0
    3.6425    1.0799    0.0000 S   0  0  0  0  0  0  0  0  0  0  0  0
    2.1434    1.2375    0.0000 C   0  0  0  0  0  0  0  0  0  0  0  0
    2.1434    2.0625    0.0000 O   0  0  0  0  0  0  0  0  0  0  0  0
    1.4289    0.8250    0.0000 C   0  0  0  0  0  0  0  0  0  0  0  0
    1.4289    0.0000    0.0000 C   0  0  0  0  0  0  0  0  0  0  0  0
    0.7145   -0.4125    0.0000 C   0  0  0  0  0  0  0  0  0  0  0  0
    0.0000   -0.0000    0.0000 C   0  0  0  0  0  0  0  0  0  0  0  0
    0.0000    0.8250    0.0000 C   0  0  0  0  0  0  0  0  0  0  0  0
    0.7145    1.2375    0.0000 C   0  0  0  0  0  0  0  0  0  0  0  0
    2.1434   -0.4125    0.0000 C   0  0  0  0  0  0  0  0  0  0  0  0
    2.1434   -1.2375    0.0000 O   0  0  0  0  0  0  0  0  0  0  0  0
  1  2  1  0  0  0  0
  2  3  1  0  0  0  0
  3  4  1  0  0  0  0
  4  5  2  0  0  0  0
  5  6  1  0  0  0  0
  5  7  1  0  0  0  0
  7  8  2  0  0  0  0
  8  9  1  0  0  0  0
  9 10  2  0  0  0  0
  4 10  1  0  0  0  0
 10 11  1  0  0  0  0
  7 12  1  0  0  0  0
 12 13  2  0  0  0  0
 12 14  1  0  0  0  0
 14 15  1  0  0  0  0
 14 16  1  0  0  0  0
 16 17  2  0  0  0  0
 17 18  1  0  0  0  0
 18 19  2  0  0  0  0
 19 20  1  0  0  0  0
 16 20  1  0  0  0  0
 19 21  1  0  0  0  0
 21 22  2  0  0  0  0
 21 23  1  0  0  0  0
 23 24  2  0  0  0  0
 24 25  1  0  0  0  0
 25 26  2  0  0  0  0
 26 27  1  0  0  0  0
 27 28  2  0  0  0  0
 23 28  1  0  0  0  0
 24 29  1  0  0  0  0
 18 29  1  0  0  0  0
 29 30  2  0  0  0  0
M  END
> <ID>
CPD_85

$$$$
CPD_90
  Mrv1822 09091914012D          

 25 28  0  0  0  0            999 V2000
    5.3649   -0.3020    0.0000 C   0  0  0  0  0  0  0  0  0  0  0  0
    4.9524    0.4125    0.0000 N   0  0  0  0  0  0  0  0  0  0  0  0
    5.3649    1.1270    0.0000 C   0  0  0  0  0  0  0  0  0  0  0  0
    4.9524    1.8414    0.0000 O   0  0  0  0  0  0  0  0  0  0  0  0
    6.1899    1.1270    0.0000 C   0  0  0  0  0  0  0  0  0  0  0  0
    6.6024    1.8414    0.0000 C   0  0  0  0  0  0  0  0  0  0  0  0
    7.4274    1.8414    0.0000 C   0  0  0  0  0  0  0  0  0  0  0  0
    7.8399    1.1270    0.0000 C   0  0  0  0  0  0  0  0  0  0  0  0
    7.4274    0.4125    0.0000 C   0  0  0  0  0  0  0  0  0  0  0  0
    6.6024    0.4125    0.0000 C   0  0  0  0  0  0  0  0  0  0  0  0
    4.1274    0.4125    0.0000 C   0  0  0  0  0  0  0  0  0  0  0  0
    3.6425   -0.2549    0.0000 N   0  0  0  0  0  0  0  0  0  0  0  0
    2.8579   -0.0000    0.0000 C   0  0  0  0  0  0  0  0  0  0  0  0
    2.8579    0.8250    0.0000 C   0  0  0  0  0  0  0  0  0  0  0  0
    3.6425    1.0799    0.0000 S   0  0  0  0  0  0  0  0  0  0  0  0
    2.1434    1.2375    0.0000 C   0  0  0  0  0  0  0  0  0  0  0  0
    2.1434    2.0625    0.0000 O   0  0  0  0  0  0  0  0  0  0  0  0
    1.4289    0.8250    0.0000 C   0  0  0  0  0  0  0  0  0  0  0  0
    1.4289    0.0000    0.0000 C   0  0  0  0  0  0  0  0  0  0  0  0
    0.7145   -0.4125    0.0000 C   0  0  0  0  0  0  0  0  0  0  0  0
    0.0000   -0.0000    0.0000 C   0  0  0  0  0  0  0  0  0  0  0  0
    0.0000    0.8250    0.0000 C   0  0  0  0  0  0  0  0  0  0  0  0
    0.7145    1.2375    0.0000 C   0  0  0  0  0  0  0  0  0  0  0  0
    2.1434   -0.4125    0.0000 C   0  0  0  0  0  0  0  0  0  0  0  0
    2.1434   -1.2375    0.0000 O   0  0  0  0  0  0  0  0  0  0  0  0
  1  2  1  0  0  0  0
  2  3  1  0  0  0  0
  3  4  2  0  0  0  0
  3  5  1  0  0  0  0
  5  6  2  0  0  0  0
  6  7  1  0  0  0  0
  7  8  2  0  0  0  0
  8  9  1  0  0  0  0
  9 10  2  0  0  0  0
  5 10  1  0  0  0  0
  2 11  1  0  0  0  0
 11 12  2  0  0  0  0
 12 13  1  0  0  0  0
 13 14  2  0  0  0  0
 14 15  1  0  0  0  0
 11 15  1  0  0  0  0
 14 16  1  0  0  0  0
 16 17  2  0  0  0  0
 16 18  1  0  0  0  0
 18 19  2  0  0  0  0
 19 20  1  0  0  0  0
 20 21  2  0  0  0  0
 21 22  1  0  0  0  0
 22 23  2  0  0  0  0
 18 23  1  0  0  0  0
 19 24  1  0  0  0  0
 13 24  1  0  0  0  0
 24 25  2  0  0  0  0
M  END
> <ID>
CPD_90

$$$$
CPD_95
  Mrv1822 09091914012D          

 28 29  0  0  0  0            999 V2000
    0.4125   -2.3645    0.0000 C   0  0  0  0  0  0  0  0  0  0  0  0
    0.0000   -1.6500    0.0000 S   0  0  0  0  0  0  0  0  0  0  0  0
   -0.7145   -2.0625    0.0000 O   0  0  0  0  0  0  0  0  0  0  0  0
   -0.4125   -0.9355    0.0000 O   0  0  0  0  0  0  0  0  0  0  0  0
    0.7145   -1.2375    0.0000 N   0  0  0  0  0  0  0  0  0  0  0  0
    1.4289   -1.6500    0.0000 C   0  0  0  0  0  0  0  0  0  0  0  0
    2.1434   -1.2375    0.0000 O   0  0  0  0  0  0  0  0  0  0  0  0
    1.4289   -2.4750    0.0000 C   0  0  0  0  0  0  0  0  0  0  0  0
    2.1434   -2.8875    0.0000 C   0  0  0  0  0  0  0  0  0  0  0  0
    2.8579   -2.4750    0.0000 Cl  0  0  0  0  0  0  0  0  0  0  0  0
    2.1434   -3.7125    0.0000 C   0  0  0  0  0  0  0  0  0  0  0  0
    1.4289   -4.1250    0.0000 C   0  0  0  0  0  0  0  0  0  0  0  0
    0.7145   -3.7125    0.0000 C   0  0  0  0  0  0  0  0  0  0  0  0
    0.7145   -2.8875    0.0000 C   0  0  0  0  0  0  0  0  0  0  0  0
    0.0000   -2.4750    0.0000 N   0  0  0  0  0  0  0  0  0  0  0  0
    0.7145   -0.4125    0.0000 C   0  0  0  0  0  0  0  0  0  0  0  0
    0.0000    0.0000    0.0000 C   0  0  0  0  0  0  0  0  0  0  0  0
    0.0000    0.8250    0.0000 C   0  0  0  0  0  0  0  0  0  0  0  0
    0.7145    1.2375    0.0000 C   0  0  0  0  0  0  0  0  0  0  0  0
    0.7145    2.0625    0.0000 C   0  0  0  0  0  0  0  0  0  0  0  0
    0.0000    2.4750    0.0000 O   0  0  0  0  0  0  0  0  0  0  0  0
    1.4289    2.4750    0.0000 O   0  0  0  0  0  0  0  0  0  0  0  0
    1.4289    0.8250    0.0000 C   0  0  0  0  0  0  0  0  0  0  0  0
    1.4289    0.0000    0.0000 C   0  0  0  0  0  0  0  0  0  0  0  0
    2.1434    1.2375    0.0000 C   0  0  0  0  0  0  0  0  0  0  0  0
    2.8579    1.6500    0.0000 F   0  0  0  0  0  0  0  0  0  0  0  0
    2.5559    0.5230    0.0000 F   0  0  0  0  0  0  0  0  0  0  0  0
    1.7309    1.9520    0.0000 F   0  0  0  0  0  0  0  0  0  0  0  0
  1  2  1  0  0  0  0
  2  3  2  0  0  0  0
  2  4  2  0  0  0  0
  2  5  1  0  0  0  0
  5  6  1  0  0  0  0
  6  7  2  0  0  0  0
  6  8  1  0  0  0  0
  8  9  2  0  0  0  0
  9 10  1  0  0  0  0
  9 11  1  0  0  0  0
 11 12  2  0  0  0  0
 12 13  1  0  0  0  0
 13 14  2  0  0  0  0
  8 14  1  0  0  0  0
 14 15  1  0  0  0  0
  5 16  1  0  0  0  0
 16 17  2  0  0  0  0
 17 18  1  0  0  0  0
 18 19  2  0  0  0  0
 19 20  1  0  0  0  0
 20 21  1  0  0  0  0
 20 22  2  0  0  0  0
 19 23  1  0  0  0  0
 23 24  2  0  0  0  0
 16 24  1  0  0  0  0
 23 25  1  0  0  0  0
 25 26  1  0  0  0  0
 25 27  1  0  0  0  0
 25 28  1  0  0  0  0
M  END
> <ID>
CPD_95

$$$$
CPD_100
  Mrv1822 09091914012D          

 36 38  0  0  0  0            999 V2000
    2.8579   -1.6500    0.0000 C   0  0  0  0  0  0  0  0  0  0  0  0
    2.8579   -2.4750    0.0000 O   0  0  0  0  0  0  0  0  0  0  0  0
    3.5724   -2.8875    0.0000 C   0  0  0  0  0  0  0  0  0  0  0  0
    4.2868   -2.4750    0.0000 O   0  0  0  0  0  0  0  0  0  0  0  0
    3.5724   -3.7125    0.0000 C   0  0  0  0  0  0  0  0  0  0  0  0
    4.2868   -4.1250    0.0000 C   0  0  0  0  0  0  0  0  0  0  0  0
    4.2868   -4.9500    0.0000 C   0  0  0  0  0  0  0  0  0  0  0  0
    3.5724   -5.3625    0.0000 C   0  0  0  0  0  0  0  0  0  0  0  0
    2.8579   -4.9500    0.0000 C   0  0  0  0  0  0  0  0  0  0  0  0
    2.8579   -4.1250    0.0000 C   0  0  0  0  0  0  0  0  0  0  0  0
    5.0013   -3.7125    0.0000 C   0  0  0  0  0  0  0  0  0  0  0  0
    5.0013   -2.8875    0.0000 C   0  0  0  0  0  0  0  0  0  0  0  0
    5.7158   -2.4750    0.0000 C   0  0  0  0  0  0  0  0  0  0  0  0
    6.4302   -2.8875    0.0000 C   0  0  0  0  0  0  0  0  0  0  0  0
    6.4302   -3.7125    0.0000 C   0  0  0  0  0  0  0  0  0  0  0  0
    5.7158   -4.1250    0.0000 C   0  0  0  0  0  0  0  0  0  0  0  0
    7.1447   -4.1250    0.0000 C   0  0  0  0  0  0  0  0  0  0  0  0
    7.1447   -4.9500    0.0000 O   0  0  0  0  0  0  0  0  0  0  0  0
    7.8592   -3.7125    0.0000 N   0  0  0  0  0  0  0  0  0  0  0  0
    8.5737   -4.1250    0.0000 C   0  0  0  0  0  0  0  0  0  0  0  0
    9.2881   -3.7125    0.0000 C   0  0  0  0  0  0  0  0  0  0  0  0
   10.0026   -4.1250    0.0000 C   0  0  0  0  0  0  0  0  0  0  0  0
   10.0026   -4.9500    0.0000 C   0  0  0  0  0  0  0  0  0  0  0  0
   10.7171   -5.3625    0.0000 C   0  0  0  0  0  0  0  0  0  0  0  0
   11.4315   -4.9500    0.0000 O   0  0  0  0  0  0  0  0  0  0  0  0
   10.7171   -6.1875    0.0000 O   0  0  0  0  0  0  0  0  0  0  0  0
    9.2881   -5.3625    0.0000 C   0  0  0  0  0  0  0  0  0  0  0  0
    8.5737   -4.9500    0.0000 C   0  0  0  0  0  0  0  0  0  0  0  0
    9.2881   -6.1875    0.0000 C   0  0  0  0  0  0  0  0  0  0  0  0
    9.2881   -7.0125    0.0000 F   0  0  0  0  0  0  0  0  0  0  0  0
    8.4631   -6.1875    0.0000 F   0  0  0  0  0  0  0  0  0  0  0  0
   10.1131   -6.1875    0.0000 F   0  0  0  0  0  0  0  0  0  0  0  0
    7.8592   -2.8875    0.0000 S   0  0  0  0  0  0  0  0  0  0  0  0
    7.8592   -2.0625    0.0000 C   0  0  0  0  0  0  0  0  0  0  0  0
    8.6842   -2.8875    0.0000 O   0  0  0  0  0  0  0  0  0  0  0  0
    7.0342   -2.8875    0.0000 O   0  0  0  0  0  0  0  0  0  0  0  0
  1  2  1  0  0  0  0
  2  3  1  0  0  0  0
  3  4  2  0  0  0  0
  3  5  1  0  0  0  0
  5  6  2  0  0  0  0
  6  7  1  0  0  0  0
  7  8  2  0  0  0  0
  8  9  1  0  0  0  0
  9 10  2  0  0  0  0
  5 10  1  0  0  0  0
  6 11  1  0  0  0  0
 11 12  2  0  0  0  0
 12 13  1  0  0  0  0
 13 14  2  0  0  0  0
 14 15  1  0  0  0  0
 15 16  2  0  0  0  0
 11 16  1  0  0  0  0
 15 17  1  0  0  0  0
 17 18  2  0  0  0  0
 17 19  1  0  0  0  0
 19 20  1  0  0  0  0
 20 21  2  0  0  0  0
 21 22  1  0  0  0  0
 22 23  2  0  0  0  0
 23 24  1  0  0  0  0
 24 25  1  0  0  0  0
 24 26  2  0  0  0  0
 23 27  1  0  0  0  0
 27 28  2  0  0  0  0
 20 28  1  0  0  0  0
 27 29  1  0  0  0  0
 29 30  1  0  0  0  0
 29 31  1  0  0  0  0
 29 32  1  0  0  0  0
 19 33  1  0  0  0  0
 33 34  1  0  0  0  0
 33 35  2  0  0  0  0
 33 36  2  0  0  0  0
M  END
> <ID>
CPD_100

$$$$
CPD_105
  Mrv1822 09091914012D          

 30 31  0  0  0  0            999 V2000
    0.0000   -0.0000    0.0000 C   0  0  0  0  0  0  0  0  0  0  0  0
    0.7145   -0.4125    0.0000 O   0  0  0  0  0  0  0  0  0  0  0  0
    0.7145   -1.2375    0.0000 C   0  0  0  0  0  0  0  0  0  0  0  0
    1.4289   -1.6500    0.0000 C   0  0  0  0  0  0  0  0  0  0  0  0
    1.4289   -2.4750    0.0000 N   0  0  0  0  0  0  0  0  0  0  0  0
    2.0964   -2.9599    0.0000 C   0  0  0  0  0  0  0  0  0  0  0  0
    1.8414   -3.7445    0.0000 C   0  0  0  0  0  0  0  0  0  0  0  0
    1.0164   -3.7445    0.0000 C   0  0  0  0  0  0  0  0  0  0  0  0
    0.7615   -2.9599    0.0000 C   0  0  0  0  0  0  0  0  0  0  0  0
   -0.0231   -2.7050    0.0000 O   0  0  0  0  0  0  0  0  0  0  0  0
    2.3264   -4.4120    0.0000 C   0  0  0  0  0  0  0  0  0  0  0  0
    1.9908   -5.1657    0.0000 O   0  0  0  0  0  0  0  0  0  0  0  0
    3.1468   -4.3257    0.0000 N   0  0  0  0  0  0  0  0  0  0  0  0
    3.6318   -4.9932    0.0000 C   0  0  0  0  0  0  0  0  0  0  0  0
    4.4522   -4.9070    0.0000 C   0  0  0  0  0  0  0  0  0  0  0  0
    4.9372   -5.5744    0.0000 C   0  0  0  0  0  0  0  0  0  0  0  0
    4.6016   -6.3281    0.0000 C   0  0  0  0  0  0  0  0  0  0  0  0
    5.0865   -6.9955    0.0000 C   0  0  0  0  0  0  0  0  0  0  0  0
    5.9070   -6.9093    0.0000 O   0  0  0  0  0  0  0  0  0  0  0  0
    4.7510   -7.7492    0.0000 O   0  0  0  0  0  0  0  0  0  0  0  0
    3.7811   -6.4143    0.0000 C   0  0  0  0  0  0  0  0  0  0  0  0
    3.2962   -5.7469    0.0000 C   0  0  0  0  0  0  0  0  0  0  0  0
    3.4456   -7.1680    0.0000 C   0  0  0  0  0  0  0  0  0  0  0  0
    3.1100   -7.9217    0.0000 F   0  0  0  0  0  0  0  0  0  0  0  0
    2.6919   -6.8324    0.0000 F   0  0  0  0  0  0  0  0  0  0  0  0
    4.1993   -7.5035    0.0000 F   0  0  0  0  0  0  0  0  0  0  0  0
    3.4824   -3.5721    0.0000 S   0  0  0  0  0  0  0  0  0  0  0  0
    3.8180   -2.8184    0.0000 C   0  0  0  0  0  0  0  0  0  0  0  0
    4.2361   -3.9076    0.0000 O   0  0  0  0  0  0  0  0  0  0  0  0
    2.7287   -3.2365    0.0000 O   0  0  0  0  0  0  0  0  0  0  0  0
  1  2  1  0  0  0  0
  2  3  1  0  0  0  0
  3  4  1  0  0  0  0
  4  5  1  0  0  0  0
  5  6  1  0  0  0  0
  6  7  1  0  0  0  0
  7  8  1  0  0  0  0
  8  9  1  0  0  0  0
  5  9  1  0  0  0  0
  9 10  2  0  0  0  0
  7 11  1  0  0  0  0
 11 12  2  0  0  0  0
 11 13  1  0  0  0  0
 13 14  1  0  0  0  0
 14 15  2  0  0  0  0
 15 16  1  0  0  0  0
 16 17  2  0  0  0  0
 17 18  1  0  0  0  0
 18 19  1  0  0  0  0
 18 20  2  0  0  0  0
 17 21  1  0  0  0  0
 21 22  2  0  0  0  0
 14 22  1  0  0  0  0
 21 23  1  0  0  0  0
 23 24  1  0  0  0  0
 23 25  1  0  0  0  0
 23 26  1  0  0  0  0
 13 27  1  0  0  0  0
 27 28  1  0  0  0  0
 27 29  2  0  0  0  0
 27 30  2  0  0  0  0
M  END
> <ID>
CPD_105

$$$$
CPD_110
  Mrv1822 09091914012D          

 30 32  0  0  0  0            999 V2000
    2.4143   -3.3985    0.0000 C   0  0  0  0  0  0  0  0  0  0  0  0
    2.2428   -2.5916    0.0000 S   0  0  0  0  0  0  0  0  0  0  0  0
    2.0713   -1.7846    0.0000 O   0  0  0  0  0  0  0  0  0  0  0  0
    3.0498   -2.4200    0.0000 O   0  0  0  0  0  0  0  0  0  0  0  0
    1.4358   -2.7631    0.0000 N   0  0  0  0  0  0  0  0  0  0  0  0
    0.8838   -2.1500    0.0000 C   0  0  0  0  0  0  0  0  0  0  0  0
    0.0768   -2.3215    0.0000 O   0  0  0  0  0  0  0  0  0  0  0  0
    1.1387   -1.3654    0.0000 C   0  0  0  0  0  0  0  0  0  0  0  0
    0.6538   -0.6979    0.0000 C   0  0  0  0  0  0  0  0  0  0  0  0
    1.1387   -0.0305    0.0000 N   0  0  0  0  0  0  0  0  0  0  0  0
    1.9233   -0.2854    0.0000 C   0  0  0  0  0  0  0  0  0  0  0  0
    2.6378    0.1271    0.0000 N   0  0  0  0  0  0  0  0  0  0  0  0
    3.3523   -0.2854    0.0000 C   0  0  0  0  0  0  0  0  0  0  0  0
    3.3523   -1.1104    0.0000 C   0  0  0  0  0  0  0  0  0  0  0  0
    4.0668   -1.5229    0.0000 Br  0  0  0  0  0  0  0  0  0  0  0  0
    2.6378   -1.5229    0.0000 C   0  0  0  0  0  0  0  0  0  0  0  0
    1.9233   -1.1104    0.0000 C   0  0  0  0  0  0  0  0  0  0  0  0
    1.1809   -3.5477    0.0000 C   0  0  0  0  0  0  0  0  0  0  0  0
    0.3739   -3.7192    0.0000 C   0  0  0  0  0  0  0  0  0  0  0  0
    0.1190   -4.5039    0.0000 C   0  0  0  0  0  0  0  0  0  0  0  0
    0.6710   -5.1170    0.0000 C   0  0  0  0  0  0  0  0  0  0  0  0
    0.4161   -5.9016    0.0000 C   0  0  0  0  0  0  0  0  0  0  0  0
    0.9681   -6.5147    0.0000 O   0  0  0  0  0  0  0  0  0  0  0  0
   -0.3909   -6.0731    0.0000 O   0  0  0  0  0  0  0  0  0  0  0  0
    1.4780   -4.9454    0.0000 C   0  0  0  0  0  0  0  0  0  0  0  0
    1.7329   -4.1608    0.0000 C   0  0  0  0  0  0  0  0  0  0  0  0
    2.0300   -5.5585    0.0000 C   0  0  0  0  0  0  0  0  0  0  0  0
    2.5820   -6.1716    0.0000 F   0  0  0  0  0  0  0  0  0  0  0  0
    1.4169   -6.1106    0.0000 F   0  0  0  0  0  0  0  0  0  0  0  0
    2.6431   -5.0065    0.0000 F   0  0  0  0  0  0  0  0  0  0  0  0
  1  2  1  0  0  0  0
  2  3  2  0  0  0  0
  2  4  2  0  0  0  0
  2  5  1  0  0  0  0
  5  6  1  0  0  0  0
  6  7  2  0  0  0  0
  6  8  1  0  0  0  0
  8  9  2  0  0  0  0
  9 10  1  0  0  0  0
 10 11  1  0  0  0  0
 11 12  2  0  0  0  0
 12 13  1  0  0  0  0
 13 14  2  0  0  0  0
 14 15  1  0  0  0  0
 14 16  1  0  0  0  0
 16 17  2  0  0  0  0
  8 17  1  0  0  0  0
 11 17  1  0  0  0  0
  5 18  1  0  0  0  0
 18 19  2  0  0  0  0
 19 20  1  0  0  0  0
 20 21  2  0  0  0  0
 21 22  1  0  0  0  0
 22 23  1  0  0  0  0
 22 24  2  0  0  0  0
 21 25  1  0  0  0  0
 25 26  2  0  0  0  0
 18 26  1  0  0  0  0
 25 27  1  0  0  0  0
 27 28  1  0  0  0  0
 27 29  1  0  0  0  0
 27 30  1  0  0  0  0
M  END
> <ID>
CPD_110

$$$$
CPD_115
  Mrv1822 09091914012D          

 29 32  0  0  0  0            999 V2000
   -5.0013   -1.2375    0.0000 Cl  0  0  0  0  0  0  0  0  0  0  0  0
   -4.2868   -1.6500    0.0000 C   0  0  0  0  0  0  0  0  0  0  0  0
   -3.5724   -1.2375    0.0000 C   0  0  0  0  0  0  0  0  0  0  0  0
   -3.5724   -0.4125    0.0000 Cl  0  0  0  0  0  0  0  0  0  0  0  0
   -2.8579   -1.6500    0.0000 C   0  0  0  0  0  0  0  0  0  0  0  0
   -2.8579   -2.4750    0.0000 C   0  0  0  0  0  0  0  0  0  0  0  0
   -2.1434   -2.8875    0.0000 N   0  0  0  0  0  0  0  0  0  0  0  0
   -1.4289   -2.4750    0.0000 C   0  0  0  0  0  0  0  0  0  0  0  0
   -1.4289   -1.6500    0.0000 O   0  0  0  0  0  0  0  0  0  0  0  0
   -0.7145   -2.8875    0.0000 C   0  0  0  0  0  0  0  0  0  0  0  0
    0.0000   -2.4750    0.0000 C   0  0  0  0  0  0  0  0  0  0  0  0
    0.7145   -2.8875    0.0000 C   0  0  0  0  0  0  0  0  0  0  0  0
    0.7145   -3.7125    0.0000 C   0  0  0  0  0  0  0  0  0  0  0  0
    0.0000   -4.1250    0.0000 C   0  0  0  0  0  0  0  0  0  0  0  0
   -0.7145   -3.7125    0.0000 C   0  0  0  0  0  0  0  0  0  0  0  0
    0.0000   -1.6500    0.0000 C   0  0  0  0  0  0  0  0  0  0  0  0
   -0.7145   -1.2375    0.0000 O   0  0  0  0  0  0  0  0  0  0  0  0
    0.7145   -1.2375    0.0000 N   0  0  0  0  0  0  0  0  0  0  0  0
    0.7145   -0.4125    0.0000 C   0  0  0  0  0  0  0  0  0  0  0  0
    1.4289    0.0000    0.0000 C   0  0  0  0  0  0  0  0  0  0  0  0
    2.1434   -0.4125    0.0000 N   0  0  0  0  0  0  0  0  0  0  0  0
    2.8579    0.0000    0.0000 C   0  0  0  0  0  0  0  0  0  0  0  0
    3.5724   -0.4125    0.0000 C   0  0  0  0  0  0  0  0  0  0  0  0
    3.5724   -1.2375    0.0000 O   0  0  0  0  0  0  0  0  0  0  0  0
    2.8579   -1.6500    0.0000 C   0  0  0  0  0  0  0  0  0  0  0  0
    2.1434   -1.2375    0.0000 C   0  0  0  0  0  0  0  0  0  0  0  0
    1.4289   -1.6500    0.0000 C   0  0  0  0  0  0  0  0  0  0  0  0
   -3.5724   -2.8875    0.0000 C   0  0  0  0  0  0  0  0  0  0  0  0
   -4.2868   -2.4750    0.0000 C   0  0  0  0  0  0  0  0  0  0  0  0
  1  2  1  0  0  0  0
  2  3  2  0  0  0  0
  3  4  1  0  0  0  0
  3  5  1  0  0  0  0
  5  6  2  0  0  0  0
  6  7  1  0  0  0  0
  7  8  1  0  0  0  0
  8  9  2  0  0  0  0
  8 10  1  0  0  0  0
 10 11  2  0  0  0  0
 11 12  1  0  0  0  0
 12 13  2  0  0  0  0
 13 14  1  0  0  0  0
 14 15  2  0  0  0  0
 10 15  1  0  0  0  0
 11 16  1  0  0  0  0
 16 17  2  0  0  0  0
 16 18  1  0  0  0  0
 18 19  1  0  0  0  0
 19 20  1  0  0  0  0
 20 21  1  0  0  0  0
 21 22  1  0  0  0  0
 22 23  1  0  0  0  0
 23 24  1  0  0  0  0
 24 25  1  0  0  0  0
 25 26  1  0  0  0  0
 21 26  1  0  0  0  0
 26 27  1  0  0  0  0
 18 27  1  0  0  0  0
  6 28  1  0  0  0  0
 28 29  2  0  0  0  0
  2 29  1  0  0  0  0
M  END
> <ID>
CPD_115

$$$$
CPD_120
  Mrv1822 09091914012D          

 28 31  0  0  0  0            999 V2000
   -2.1434   -6.1875    0.0000 C   0  0  0  0  0  0  0  0  0  0  0  0
   -2.1434   -5.3625    0.0000 C   0  0  0  0  0  0  0  0  0  0  0  0
   -1.4289   -4.9500    0.0000 O   0  0  0  0  0  0  0  0  0  0  0  0
   -1.4289   -4.1250    0.0000 C   0  0  0  0  0  0  0  0  0  0  0  0
   -2.1434   -3.7125    0.0000 O   0  0  0  0  0  0  0  0  0  0  0  0
   -0.7145   -3.7125    0.0000 C   0  0  0  0  0  0  0  0  0  0  0  0
    0.0000   -4.1250    0.0000 C   0  0  0  0  0  0  0  0  0  0  0  0
    0.7145   -3.7125    0.0000 C   0  0  0  0  0  0  0  0  0  0  0  0
    0.7145   -2.8875    0.0000 C   0  0  0  0  0  0  0  0  0  0  0  0
    1.4289   -2.4750    0.0000 C   0  0  0  0  0  0  0  0  0  0  0  0
    2.1434   -2.8875    0.0000 C   0  0  0  0  0  0  0  0  0  0  0  0
    2.1434   -3.7125    0.0000 C   0  0  0  0  0  0  0  0  0  0  0  0
    1.4289   -4.1250    0.0000 C   0  0  0  0  0  0  0  0  0  0  0  0
    0.0000   -2.4750    0.0000 C   0  0  0  0  0  0  0  0  0  0  0  0
    0.0000   -1.6500    0.0000 C   0  0  0  0  0  0  0  0  0  0  0  0
   -0.7145   -1.2375    0.0000 O   0  0  0  0  0  0  0  0  0  0  0  0
    0.7145   -1.2375    0.0000 N   0  0  0  0  0  0  0  0  0  0  0  0
    0.7145   -0.4125    0.0000 C   0  0  0  0  0  0  0  0  0  0  0  0
    1.4289    0.0000    0.0000 C   0  0  0  0  0  0  0  0  0  0  0  0
    2.1434   -0.4125    0.0000 N   0  0  0  0  0  0  0  0  0  0  0  0
    2.8579    0.0000    0.0000 C   0  0  0  0  0  0  0  0  0  0  0  0
    3.5724   -0.4125    0.0000 C   0  0  0  0  0  0  0  0  0  0  0  0
    3.5724   -1.2375    0.0000 O   0  0  0  0  0  0  0  0  0  0  0  0
    2.8579   -1.6500    0.0000 C   0  0  0  0  0  0  0  0  0  0  0  0
    2.1434   -1.2375    0.0000 C   0  0  0  0  0  0  0  0  0  0  0  0
    1.4289   -1.6500    0.0000 C   0  0  0  0  0  0  0  0  0  0  0  0
   -0.7145   -2.8875    0.0000 C   0  0  0  0  0  0  0  0  0  0  0  0
   -1.4289   -2.4750    0.0000 O   0  0  0  0  0  0  0  0  0  0  0  0
  1  2  1  0  0  0  0
  2  3  1  0  0  0  0
  3  4  1  0  0  0  0
  4  5  2  0  0  0  0
  4  6  1  0  0  0  0
  6  7  2  0  0  0  0
  7  8  1  0  0  0  0
  8  9  2  0  0  0  0
  9 10  1  0  0  0  0
 10 11  1  0  0  0  0
 11 12  1  0  0  0  0
 12 13  1  0  0  0  0
  8 13  1  0  0  0  0
  9 14  1  0  0  0  0
 14 15  1  0  0  0  0
 15 16  2  0  0  0  0
 15 17  1  0  0  0  0
 17 18  1  0  0  0  0
 18 19  1  0  0  0  0
 19 20  1  0  0  0  0
 20 21  1  0  0  0  0
 21 22  1  0  0  0  0
 22 23  1  0  0  0  0
 23 24  1  0  0  0  0
 24 25  1  0  0  0  0
 20 25  1  0  0  0  0
 25 26  1  0  0  0  0
 17 26  1  0  0  0  0
 14 27  2  0  0  0  0
  6 27  1  0  0  0  0
 27 28  1  0  0  0  0
M  END
> <ID>
CPD_120

$$$$
CPD_125
  Mrv1822 09091914012D          

 27 29  0  0  0  0            999 V2000
   -0.1749   -0.6157    0.0000 O   0  0  0  0  0  0  0  0  0  0  0  0
    0.6320   -0.4441    0.0000 C   0  0  0  0  0  0  0  0  0  0  0  0
    0.8870    0.3405    0.0000 O   0  0  0  0  0  0  0  0  0  0  0  0
    1.1841   -1.0572    0.0000 C   0  0  0  0  0  0  0  0  0  0  0  0
    1.8515   -1.5422    0.0000 C   0  0  0  0  0  0  0  0  0  0  0  0
    1.5966   -2.3268    0.0000 C   0  0  0  0  0  0  0  0  0  0  0  0
    0.7716   -2.3268    0.0000 C   0  0  0  0  0  0  0  0  0  0  0  0
    0.5166   -1.5422    0.0000 N   0  0  0  0  0  0  0  0  0  0  0  0
   -0.2680   -1.2872    0.0000 C   0  0  0  0  0  0  0  0  0  0  0  0
   -0.4395   -0.4803    0.0000 O   0  0  0  0  0  0  0  0  0  0  0  0
   -0.8811   -1.8393    0.0000 C   0  0  0  0  0  0  0  0  0  0  0  0
   -0.7096   -2.6462    0.0000 C   0  0  0  0  0  0  0  0  0  0  0  0
   -1.3227   -3.1983    0.0000 N   0  0  0  0  0  0  0  0  0  0  0  0
   -2.1073   -2.9433    0.0000 C   0  0  0  0  0  0  0  0  0  0  0  0
   -2.7204   -3.4954    0.0000 O   0  0  0  0  0  0  0  0  0  0  0  0
   -2.2788   -2.1364    0.0000 C   0  0  0  0  0  0  0  0  0  0  0  0
   -1.6657   -1.5843    0.0000 C   0  0  0  0  0  0  0  0  0  0  0  0
    0.0751   -2.9012    0.0000 C   0  0  0  0  0  0  0  0  0  0  0  0
    0.8597   -3.1561    0.0000 F   0  0  0  0  0  0  0  0  0  0  0  0
   -0.1799   -3.6858    0.0000 F   0  0  0  0  0  0  0  0  0  0  0  0
    0.3300   -2.1165    0.0000 F   0  0  0  0  0  0  0  0  0  0  0  0
    1.7361   -0.4441    0.0000 C   0  0  0  0  0  0  0  0  0  0  0  0
    1.4812    0.3405    0.0000 C   0  0  0  0  0  0  0  0  0  0  0  0
    2.0332    0.9536    0.0000 C   0  0  0  0  0  0  0  0  0  0  0  0
    2.8402    0.7820    0.0000 C   0  0  0  0  0  0  0  0  0  0  0  0
    3.0951   -0.0026    0.0000 C   0  0  0  0  0  0  0  0  0  0  0  0
    2.5431   -0.6157    0.0000 C   0  0  0  0  0  0  0  0  0  0  0  0
  1  2  1  0  0  0  0
  2  3  2  0  0  0  0
  2  4  1  0  0  0  0
  4  5  1  0  0  0  0
  5  6  1  0  0  0  0
  6  7  1  0  0  0  0
  7  8  1  0  0  0  0
  4  8  1  0  0  0  0
  8  9  1  0  0  0  0
  9 10  2  0  0  0  0
  9 11  1  0  0  0  0
 11 12  2  0  0  0  0
 12 13  1  0  0  0  0
 13 14  1  0  0  0  0
 14 15  2  0  0  0  0
 14 16  1  0  0  0  0
 16 17  1  0  0  0  0
 11 17  1  0  0  0  0
 12 18  1  0  0  0  0
 18 19  1  0  0  0  0
 18 20  1  0  0  0  0
 18 21  1  0  0  0  0
  4 22  1  0  0  0  0
 22 23  2  0  0  0  0
 23 24  1  0  0  0  0
 24 25  2  0  0  0  0
 25 26  1  0  0  0  0
 26 27  2  0  0  0  0
 22 27  1  0  0  0  0
M  END
> <ID>
CPD_125

$$$$
CPD_130
  Mrv1822 09091914012D          

 24 26  0  0  0  0            999 V2000
   -3.3630   -4.3922    0.0000 C   0  0  0  0  0  0  0  0  0  0  0  0
   -3.5345   -3.5852    0.0000 S   0  0  0  0  0  0  0  0  0  0  0  0
   -2.9214   -3.0332    0.0000 C   0  0  0  0  0  0  0  0  0  0  0  0
   -3.0929   -2.2262    0.0000 C   0  0  0  0  0  0  0  0  0  0  0  0
   -2.4798   -1.6742    0.0000 C   0  0  0  0  0  0  0  0  0  0  0  0
   -1.6952   -1.9291    0.0000 C   0  0  0  0  0  0  0  0  0  0  0  0
   -1.5237   -2.7361    0.0000 C   0  0  0  0  0  0  0  0  0  0  0  0
   -2.1368   -3.2881    0.0000 C   0  0  0  0  0  0  0  0  0  0  0  0
   -1.0821   -1.3771    0.0000 C   0  0  0  0  0  0  0  0  0  0  0  0
   -1.2536   -0.5701    0.0000 O   0  0  0  0  0  0  0  0  0  0  0  0
   -0.2975   -1.6320    0.0000 N   0  0  0  0  0  0  0  0  0  0  0  0
   -0.0425   -2.4167    0.0000 C   0  0  0  0  0  0  0  0  0  0  0  0
    0.7825   -2.4167    0.0000 C   0  0  0  0  0  0  0  0  0  0  0  0
    1.0374   -1.6320    0.0000 C   0  0  0  0  0  0  0  0  0  0  0  0
    0.3700   -1.1471    0.0000 C   0  0  0  0  0  0  0  0  0  0  0  0
    0.7750   -0.4284    0.0000 C   0  0  0  0  0  0  0  0  0  0  0  0
    1.5999   -0.4197    0.0000 O   0  0  0  0  0  0  0  0  0  0  0  0
    0.8526    0.3930    0.0000 O   0  0  0  0  0  0  0  0  0  0  0  0
   -0.0350   -0.4284    0.0000 C   0  0  0  0  0  0  0  0  0  0  0  0
   -0.8600   -0.4197    0.0000 C   0  0  0  0  0  0  0  0  0  0  0  0
   -1.2650    0.2990    0.0000 C   0  0  0  0  0  0  0  0  0  0  0  0
   -0.8450    1.0091    0.0000 C   0  0  0  0  0  0  0  0  0  0  0  0
   -0.0201    1.0005    0.0000 C   0  0  0  0  0  0  0  0  0  0  0  0
    0.3849    0.2817    0.0000 C   0  0  0  0  0  0  0  0  0  0  0  0
  1  2  1  0  0  0  0
  2  3  1  0  0  0  0
  3  4  2  0  0  0  0
  4  5  1  0  0  0  0
  5  6  2  0  0  0  0
  6  7  1  0  0  0  0
  7  8  2  0  0  0  0
  3  8  1  0  0  0  0
  6  9  1  0  0  0  0
  9 10  2  0  0  0  0
  9 11  1  0  0  0  0
 11 12  1  0  0  0  0
 12 13  1  0  0  0  0
 13 14  1  0  0  0  0
 14 15  1  0  0  0  0
 11 15  1  0  0  0  0
 15 16  1  0  0  0  0
 16 17  1  0  0  0  0
 16 18  2  0  0  0  0
 15 19  1  0  0  0  0
 19 20  2  0  0  0  0
 20 21  1  0  0  0  0
 21 22  2  0  0  0  0
 22 23  1  0  0  0  0
 23 24  2  0  0  0  0
 19 24  1  0  0  0  0
M  END
> <ID>
CPD_130

$$$$
CPD_135
  Mrv1822 09091914012D          

 30 33  0  0  1  0            999 V2000
    8.4164   -1.6474    0.0000 O   0  0  0  0  0  0  0  0  0  0  0  0
    7.7019   -2.0599    0.0000 C   0  0  0  0  0  0  0  0  0  0  0  0
    6.9874   -1.6474    0.0000 O   0  0  0  0  0  0  0  0  0  0  0  0
    7.7019   -2.8849    0.0000 C   0  0  1  0  0  0  0  0  0  0  0  0
    8.3693   -3.3698    0.0000 C   0  0  0  0  0  0  0  0  0  0  0  0
    8.1144   -4.1544    0.0000 C   0  0  0  0  0  0  0  0  0  0  0  0
    7.2894   -4.1544    0.0000 C   0  0  0  0  0  0  0  0  0  0  0  0
    7.0344   -3.3698    0.0000 C   0  0  2  0  0  0  0  0  0  0  0  0
    6.2498   -3.1148    0.0000 C   0  0  0  0  0  0  0  0  0  0  0  0
    5.6367   -3.6669    0.0000 O   0  0  0  0  0  0  0  0  0  0  0  0
    6.0783   -2.3079    0.0000 N   0  0  0  0  0  0  0  0  0  0  0  0
    5.2937   -2.0529    0.0000 C   0  0  0  0  0  0  0  0  0  0  0  0
    4.6262   -2.5379    0.0000 N   0  0  0  0  0  0  0  0  0  0  0  0
    3.9588   -2.0529    0.0000 N   0  0  0  0  0  0  0  0  0  0  0  0
    4.2137   -1.2683    0.0000 C   0  0  0  0  0  0  0  0  0  0  0  0
    5.0387   -1.2683    0.0000 S   0  0  0  0  0  0  0  0  0  0  0  0
    3.7288   -0.6009    0.0000 C   0  0  0  0  0  0  0  0  0  0  0  0
    2.9083   -0.6871    0.0000 C   0  0  0  0  0  0  0  0  0  0  0  0
    2.4234   -0.0197    0.0000 C   0  0  0  0  0  0  0  0  0  0  0  0
    2.7590    0.7340    0.0000 N   0  0  0  0  0  0  0  0  0  0  0  0
    3.5795    0.8202    0.0000 C   0  0  0  0  0  0  0  0  0  0  0  0
    4.0644    0.1528    0.0000 C   0  0  0  0  0  0  0  0  0  0  0  0
    2.2740    1.4014    0.0000 C   0  0  0  0  0  0  0  0  0  0  0  0
    1.4536    1.3152    0.0000 O   0  0  0  0  0  0  0  0  0  0  0  0
    2.6096    2.1551    0.0000 C   0  0  0  0  0  0  0  0  0  0  0  0
    2.1247    2.8226    0.0000 C   0  0  0  0  0  0  0  0  0  0  0  0
    2.4602    3.5762    0.0000 C   0  0  0  0  0  0  0  0  0  0  0  0
    3.2807    3.6625    0.0000 C   0  0  0  0  0  0  0  0  0  0  0  0
    3.7656    2.9950    0.0000 C   0  0  0  0  0  0  0  0  0  0  0  0
    3.4301    2.2414    0.0000 C   0  0  0  0  0  0  0  0  0  0  0  0
  1  2  1  0  0  0  0
  2  3  2  0  0  0  0
  4  2  1  1  0  0  0
  4  5  1  0  0  0  0
  5  6  1  0  0  0  0
  6  7  1  0  0  0  0
  8  7  1  0  0  0  0
  4  8  1  0  0  0  0
  8  9  1  6  0  0  0
  9 10  2  0  0  0  0
  9 11  1  0  0  0  0
 11 12  1  0  0  0  0
 12 13  2  0  0  0  0
 13 14  1  0  0  0  0
 14 15  2  0  0  0  0
 15 16  1  0  0  0  0
 12 16  1  0  0  0  0
 15 17  1  0  0  0  0
 17 18  1  0  0  0  0
 18 19  1  0  0  0  0
 19 20  1  0  0  0  0
 20 21  1  0  0  0  0
 21 22  1  0  0  0  0
 17 22  1  0  0  0  0
 20 23  1  0  0  0  0
 23 24  2  0  0  0  0
 23 25  1  0  0  0  0
 25 26  2  0  0  0  0
 26 27  1  0  0  0  0
 27 28  2  0  0  0  0
 28 29  1  0  0  0  0
 29 30  2  0  0  0  0
 25 30  1  0  0  0  0
M  END
> <ID>
CPD_135

$$$$
CPD_140
  Mrv1822 09091914012D          

 32 35  0  0  0  0            999 V2000
    2.7512    0.7634    0.0000 N   0  0  0  0  0  0  0  0  0  0  0  0
    2.7512   -0.0616    0.0000 C   0  0  0  0  0  0  0  0  0  0  0  0
    3.4656   -0.4741    0.0000 C   0  0  0  0  0  0  0  0  0  0  0  0
    3.4656   -1.2991    0.0000 C   0  0  0  0  0  0  0  0  0  0  0  0
    4.1801   -1.7116    0.0000 O   0  0  0  0  0  0  0  0  0  0  0  0
    2.7512   -1.7116    0.0000 N   0  0  0  0  0  0  0  0  0  0  0  0
    2.7512   -2.5366    0.0000 C   0  0  0  0  0  0  0  0  0  0  0  0
    3.4186   -3.0215    0.0000 N   0  0  0  0  0  0  0  0  0  0  0  0
    3.1637   -3.8062    0.0000 N   0  0  0  0  0  0  0  0  0  0  0  0
    2.3387   -3.8062    0.0000 C   0  0  0  0  0  0  0  0  0  0  0  0
    2.0837   -3.0215    0.0000 S   0  0  0  0  0  0  0  0  0  0  0  0
    1.8538   -4.4736    0.0000 C   0  0  0  0  0  0  0  0  0  0  0  0
    2.1893   -5.2273    0.0000 C   0  0  0  0  0  0  0  0  0  0  0  0
    1.7044   -5.8947    0.0000 C   0  0  0  0  0  0  0  0  0  0  0  0
    0.8839   -5.8085    0.0000 N   0  0  0  0  0  0  0  0  0  0  0  0
    0.5484   -5.0548    0.0000 C   0  0  0  0  0  0  0  0  0  0  0  0
    1.0333   -4.3874    0.0000 C   0  0  0  0  0  0  0  0  0  0  0  0
    0.3990   -6.4759    0.0000 C   0  0  0  0  0  0  0  0  0  0  0  0
    0.7345   -7.2296    0.0000 O   0  0  0  0  0  0  0  0  0  0  0  0
   -0.4215   -6.3897    0.0000 C   0  0  0  0  0  0  0  0  0  0  0  0
   -0.9064   -7.0571    0.0000 C   0  0  0  0  0  0  0  0  0  0  0  0
   -1.7269   -6.9709    0.0000 C   0  0  0  0  0  0  0  0  0  0  0  0
   -2.0625   -6.2172    0.0000 C   0  0  0  0  0  0  0  0  0  0  0  0
   -1.5775   -5.5498    0.0000 C   0  0  0  0  0  0  0  0  0  0  0  0
   -0.7571   -5.6360    0.0000 C   0  0  0  0  0  0  0  0  0  0  0  0
    4.1801   -0.0616    0.0000 C   0  0  0  0  0  0  0  0  0  0  0  0
    4.1801    0.7634    0.0000 C   0  0  0  0  0  0  0  0  0  0  0  0
    4.8946    1.1759    0.0000 C   0  0  0  0  0  0  0  0  0  0  0  0
    5.6091    0.7634    0.0000 C   0  0  0  0  0  0  0  0  0  0  0  0
    6.3235    1.1759    0.0000 Cl  0  0  0  0  0  0  0  0  0  0  0  0
    5.6091   -0.0616    0.0000 C   0  0  0  0  0  0  0  0  0  0  0  0
    4.8946   -0.4741    0.0000 C   0  0  0  0  0  0  0  0  0  0  0  0
  1  2  1  0  0  0  0
  2  3  1  0  0  0  0
  3  4  1  0  0  0  0
  4  5  2  0  0  0  0
  4  6  1  0  0  0  0
  6  7  1  0  0  0  0
  7  8  2  0  0  0  0
  8  9  1  0  0  0  0
  9 10  2  0  0  0  0
 10 11  1  0  0  0  0
  7 11  1  0  0  0  0
 10 12  1  0  0  0  0
 12 13  1  0  0  0  0
 13 14  1  0  0  0  0
 14 15  1  0  0  0  0
 15 16  1  0  0  0  0
 16 17  1  0  0  0  0
 12 17  1  0  0  0  0
 15 18  1  0  0  0  0
 18 19  2  0  0  0  0
 18 20  1  0  0  0  0
 20 21  2  0  0  0  0
 21 22  1  0  0  0  0
 22 23  2  0  0  0  0
 23 24  1  0  0  0  0
 24 25  2  0  0  0  0
 20 25  1  0  0  0  0
  3 26  1  0  0  0  0
 26 27  2  0  0  0  0
 27 28  1  0  0  0  0
 28 29  2  0  0  0  0
 29 30  1  0  0  0  0
 29 31  1  0  0  0  0
 31 32  2  0  0  0  0
 26 32  1  0  0  0  0
M  END
> <ID>
CPD_140

$$$$
CPD_145
  Mrv1822 09091914012D          

 31 34  0  0  0  0            999 V2000
   -5.9697   -5.4273    0.0000 C   0  0  0  0  0  0  0  0  0  0  0  0
   -5.9697   -6.2523    0.0000 C   0  0  0  0  0  0  0  0  0  0  0  0
   -5.3023   -6.7373    0.0000 C   0  0  0  0  0  0  0  0  0  0  0  0
   -4.5176   -6.4823    0.0000 C   0  0  0  0  0  0  0  0  0  0  0  0
   -3.9045   -7.0343    0.0000 C   0  0  0  0  0  0  0  0  0  0  0  0
   -3.1199   -6.7794    0.0000 C   0  0  0  0  0  0  0  0  0  0  0  0
   -2.9484   -5.9724    0.0000 O   0  0  0  0  0  0  0  0  0  0  0  0
   -2.5068   -7.3314    0.0000 N   0  0  0  0  0  0  0  0  0  0  0  0
   -1.7222   -7.0765    0.0000 C   0  0  0  0  0  0  0  0  0  0  0  0
   -1.4673   -6.2919    0.0000 N   0  0  0  0  0  0  0  0  0  0  0  0
   -0.6423   -6.2919    0.0000 N   0  0  0  0  0  0  0  0  0  0  0  0
   -0.3873   -7.0765    0.0000 C   0  0  0  0  0  0  0  0  0  0  0  0
   -1.0548   -7.5614    0.0000 S   0  0  0  0  0  0  0  0  0  0  0  0
    0.3973   -7.3314    0.0000 C   0  0  0  0  0  0  0  0  0  0  0  0
    1.0104   -6.7794    0.0000 C   0  0  0  0  0  0  0  0  0  0  0  0
    1.7950   -7.0343    0.0000 C   0  0  0  0  0  0  0  0  0  0  0  0
    1.9665   -7.8413    0.0000 N   0  0  0  0  0  0  0  0  0  0  0  0
    1.3534   -8.3934    0.0000 C   0  0  0  0  0  0  0  0  0  0  0  0
    0.5688   -8.1384    0.0000 C   0  0  0  0  0  0  0  0  0  0  0  0
    2.7512   -8.0963    0.0000 C   0  0  0  0  0  0  0  0  0  0  0  0
    2.9227   -8.9032    0.0000 O   0  0  0  0  0  0  0  0  0  0  0  0
    3.3643   -7.5442    0.0000 C   0  0  0  0  0  0  0  0  0  0  0  0
    3.1927   -6.7373    0.0000 C   0  0  0  0  0  0  0  0  0  0  0  0
    3.8058   -6.1852    0.0000 C   0  0  0  0  0  0  0  0  0  0  0  0
    4.5904   -6.4402    0.0000 C   0  0  0  0  0  0  0  0  0  0  0  0
    4.7620   -7.2471    0.0000 C   0  0  0  0  0  0  0  0  0  0  0  0
    4.1489   -7.7992    0.0000 C   0  0  0  0  0  0  0  0  0  0  0  0
   -5.5572   -7.5219    0.0000 C   0  0  0  0  0  0  0  0  0  0  0  0
   -5.0723   -8.1893    0.0000 C   0  0  0  0  0  0  0  0  0  0  0  0
   -6.3822   -7.5219    0.0000 C   0  0  0  0  0  0  0  0  0  0  0  0
   -6.6371   -6.7373    0.0000 N   0  0  0  0  0  0  0  0  0  0  0  0
  1  2  1  0  0  0  0
  2  3  2  0  0  0  0
  3  4  1  0  0  0  0
  4  5  1  0  0  0  0
  5  6  1  0  0  0  0
  6  7  2  0  0  0  0
  6  8  1  0  0  0  0
  8  9  1  0  0  0  0
  9 10  2  0  0  0  0
 10 11  1  0  0  0  0
 11 12  2  0  0  0  0
 12 13  1  0  0  0  0
  9 13  1  0  0  0  0
 12 14  1  0  0  0  0
 14 15  1  0  0  0  0
 15 16  1  0  0  0  0
 16 17  1  0  0  0  0
 17 18  1  0  0  0  0
 18 19  1  0  0  0  0
 14 19  1  0  0  0  0
 17 20  1  0  0  0  0
 20 21  2  0  0  0  0
 20 22  1  0  0  0  0
 22 23  2  0  0  0  0
 23 24  1  0  0  0  0
 24 25  2  0  0  0  0
 25 26  1  0  0  0  0
 26 27  2  0  0  0  0
 22 27  1  0  0  0  0
  3 28  1  0  0  0  0
 28 29  1  0  0  0  0
 28 30  2  0  0  0  0
 30 31  1  0  0  0  0
  2 31  1  0  0  0  0
M  END
> <ID>
CPD_145

$$$$
CPD_150
  Mrv1822 09091914012D          

 34 38  0  0  0  0            999 V2000
    7.7778   -3.9496    0.0000 C   0  0  0  0  0  0  0  0  0  0  0  0
    8.4923   -3.5371    0.0000 C   0  0  0  0  0  0  0  0  0  0  0  0
    8.4923   -2.7121    0.0000 C   0  0  0  0  0  0  0  0  0  0  0  0
    9.2068   -2.2996    0.0000 C   0  0  0  0  0  0  0  0  0  0  0  0
    9.9212   -2.7121    0.0000 C   0  0  0  0  0  0  0  0  0  0  0  0
    9.9212   -3.5371    0.0000 C   0  0  0  0  0  0  0  0  0  0  0  0
    9.2068   -3.9496    0.0000 C   0  0  0  0  0  0  0  0  0  0  0  0
    9.2068   -4.7746    0.0000 N   0  0  0  0  0  0  0  0  0  0  0  0
    9.8742   -5.2595    0.0000 C   0  0  0  0  0  0  0  0  0  0  0  0
    9.6193   -6.0442    0.0000 C   0  0  0  0  0  0  0  0  0  0  0  0
    8.7943   -6.0442    0.0000 C   0  0  0  0  0  0  0  0  0  0  0  0
    8.5393   -5.2595    0.0000 C   0  0  0  0  0  0  0  0  0  0  0  0
    7.7778   -2.2996    0.0000 C   0  0  0  0  0  0  0  0  0  0  0  0
    7.0634   -2.7121    0.0000 O   0  0  0  0  0  0  0  0  0  0  0  0
    7.7778   -1.4746    0.0000 N   0  0  0  0  0  0  0  0  0  0  0  0
    7.0634   -1.0621    0.0000 C   0  0  0  0  0  0  0  0  0  0  0  0
    6.3097   -1.3977    0.0000 N   0  0  0  0  0  0  0  0  0  0  0  0
    5.7577   -0.7846    0.0000 N   0  0  0  0  0  0  0  0  0  0  0  0
    6.1702   -0.0701    0.0000 C   0  0  0  0  0  0  0  0  0  0  0  0
    6.9771   -0.2416    0.0000 S   0  0  0  0  0  0  0  0  0  0  0  0
    5.8346    0.6836    0.0000 C   0  0  0  0  0  0  0  0  0  0  0  0
    5.0141    0.7698    0.0000 C   0  0  0  0  0  0  0  0  0  0  0  0
    4.6786    1.5235    0.0000 C   0  0  0  0  0  0  0  0  0  0  0  0
    5.1635    2.1909    0.0000 N   0  0  0  0  0  0  0  0  0  0  0  0
    5.9840    2.1047    0.0000 C   0  0  0  0  0  0  0  0  0  0  0  0
    6.3195    1.3510    0.0000 C   0  0  0  0  0  0  0  0  0  0  0  0
    4.8279    2.9446    0.0000 C   0  0  0  0  0  0  0  0  0  0  0  0
    4.0074    3.0308    0.0000 O   0  0  0  0  0  0  0  0  0  0  0  0
    5.3128    3.6120    0.0000 C   0  0  0  0  0  0  0  0  0  0  0  0
    4.9773    4.3657    0.0000 C   0  0  0  0  0  0  0  0  0  0  0  0
    5.4622    5.0331    0.0000 C   0  0  0  0  0  0  0  0  0  0  0  0
    6.2827    4.9469    0.0000 C   0  0  0  0  0  0  0  0  0  0  0  0
    6.6182    4.1932    0.0000 C   0  0  0  0  0  0  0  0  0  0  0  0
    6.1333    3.5258    0.0000 C   0  0  0  0  0  0  0  0  0  0  0  0
  1  2  1  0  0  0  0
  2  3  2  0  0  0  0
  3  4  1  0  0  0  0
  4  5  2  0  0  0  0
  5  6  1  0  0  0  0
  6  7  2  0  0  0  0
  2  7  1  0  0  0  0
  7  8  1  0  0  0  0
  8  9  1  0  0  0  0
  9 10  2  0  0  0  0
 10 11  1  0  0  0  0
 11 12  2  0  0  0  0
  8 12  1  0  0  0  0
  3 13  1  0  0  0  0
 13 14  2  0  0  0  0
 13 15  1  0  0  0  0
 15 16  1  0  0  0  0
 16 17  2  0  0  0  0
 17 18  1  0  0  0  0
 18 19  2  0  0  0  0
 19 20  1  0  0  0  0
 16 20  1  0  0  0  0
 19 21  1  0  0  0  0
 21 22  1  0  0  0  0
 22 23  1  0  0  0  0
 23 24  1  0  0  0  0
 24 25  1  0  0  0  0
 25 26  1  0  0  0  0
 21 26  1  0  0  0  0
 24 27  1  0  0  0  0
 27 28  2  0  0  0  0
 27 29  1  0  0  0  0
 29 30  2  0  0  0  0
 30 31  1  0  0  0  0
 31 32  2  0  0  0  0
 32 33  1  0  0  0  0
 33 34  2  0  0  0  0
 29 34  1  0  0  0  0
M  END
> <ID>
CPD_150

$$$$
CPD_155
  Mrv1822 09091914012D          

 35 37  0  0  0  0            999 V2000
   -1.4289   -6.6000    0.0000 C   0  0  0  0  0  0  0  0  0  0  0  0
   -0.7145   -6.1875    0.0000 O   0  0  0  0  0  0  0  0  0  0  0  0
   -0.7145   -5.3625    0.0000 C   0  0  0  0  0  0  0  0  0  0  0  0
   -1.4289   -4.9500    0.0000 C   0  0  0  0  0  0  0  0  0  0  0  0
   -1.4289   -4.1250    0.0000 C   0  0  0  0  0  0  0  0  0  0  0  0
   -0.7145   -3.7125    0.0000 C   0  0  0  0  0  0  0  0  0  0  0  0
    0.0000   -4.1250    0.0000 C   0  0  0  0  0  0  0  0  0  0  0  0
    0.7145   -3.7125    0.0000 F   0  0  0  0  0  0  0  0  0  0  0  0
    0.0000   -4.9500    0.0000 C   0  0  0  0  0  0  0  0  0  0  0  0
    0.7145   -5.3625    0.0000 N   0  0  0  0  0  0  0  0  0  0  0  0
    0.7145   -6.1875    0.0000 C   0  0  0  0  0  0  0  0  0  0  0  0
    1.4289   -4.9500    0.0000 C   0  0  0  0  0  0  0  0  0  0  0  0
    1.4289   -4.1250    0.0000 O   0  0  0  0  0  0  0  0  0  0  0  0
    2.1434   -5.3625    0.0000 C   0  0  0  0  0  0  0  0  0  0  0  0
    2.1434   -6.1875    0.0000 C   0  0  0  0  0  0  0  0  0  0  0  0
    2.8579   -4.9500    0.0000 O   0  0  0  0  0  0  0  0  0  0  0  0
    3.5724   -5.3625    0.0000 C   0  0  0  0  0  0  0  0  0  0  0  0
    4.2868   -4.9500    0.0000 C   0  0  0  0  0  0  0  0  0  0  0  0
    5.0013   -5.3625    0.0000 C   0  0  0  0  0  0  0  0  0  0  0  0
    5.0013   -6.1875    0.0000 C   0  0  0  0  0  0  0  0  0  0  0  0
    4.2868   -6.6000    0.0000 C   0  0  0  0  0  0  0  0  0  0  0  0
    3.5724   -6.1875    0.0000 C   0  0  0  0  0  0  0  0  0  0  0  0
    5.7158   -6.6000    0.0000 C   0  0  0  0  0  0  0  0  0  0  0  0
    6.4302   -6.1875    0.0000 N   0  0  0  0  0  0  0  0  0  0  0  0
    7.1447   -6.6000    0.0000 C   0  0  0  0  0  0  0  0  0  0  0  0
    7.1447   -7.4250    0.0000 C   0  0  0  0  0  0  0  0  0  0  0  0
    6.4302   -7.8375    0.0000 C   0  0  0  0  0  0  0  0  0  0  0  0
    5.7158   -7.4250    0.0000 C   0  0  0  0  0  0  0  0  0  0  0  0
    6.4302   -8.6625    0.0000 C   0  0  0  0  0  0  0  0  0  0  0  0
    6.4302   -9.4875    0.0000 F   0  0  0  0  0  0  0  0  0  0  0  0
    5.6052   -8.6625    0.0000 F   0  0  0  0  0  0  0  0  0  0  0  0
    7.2552   -8.6625    0.0000 F   0  0  0  0  0  0  0  0  0  0  0  0
    7.8592   -6.1875    0.0000 N   0  0  0  0  0  0  0  0  0  0  0  0
    8.5737   -6.6000    0.0000 C   0  0  0  0  0  0  0  0  0  0  0  0
    7.8592   -5.3625    0.0000 C   0  0  0  0  0  0  0  0  0  0  0  0
  1  2  1  0  0  0  0
  2  3  1  0  0  0  0
  3  4  2  0  0  0  0
  4  5  1  0  0  0  0
  5  6  2  0  0  0  0
  6  7  1  0  0  0  0
  7  8  1  0  0  0  0
  7  9  2  0  0  0  0
  3  9  1  0  0  0  0
  9 10  1  0  0  0  0
 10 11  1  0  0  0  0
 10 12  1  0  0  0  0
 12 13  2  0  0  0  0
 12 14  1  0  0  0  0
 14 15  1  0  0  0  0
 14 16  1  0  0  0  0
 16 17  1  0  0  0  0
 17 18  2  0  0  0  0
 18 19  1  0  0  0  0
 19 20  2  0  0  0  0
 20 21  1  0  0  0  0
 21 22  2  0  0  0  0
 17 22  1  0  0  0  0
 20 23  1  0  0  0  0
 23 24  2  0  0  0  0
 24 25  1  0  0  0  0
 25 26  2  0  0  0  0
 26 27  1  0  0  0  0
 27 28  2  0  0  0  0
 23 28  1  0  0  0  0
 27 29  1  0  0  0  0
 29 30  1  0  0  0  0
 29 31  1  0  0  0  0
 29 32  1  0  0  0  0
 25 33  1  0  0  0  0
 33 34  1  0  0  0  0
 33 35  1  0  0  0  0
M  END
> <ID>
CPD_155

$$$$
CPD_160
  Mrv1822 09091914012D          

 33 36  0  0  0  0            999 V2000
   -2.8579   -7.4250    0.0000 C   0  0  0  0  0  0  0  0  0  0  0  0
   -2.8579   -6.6000    0.0000 O   0  0  0  0  0  0  0  0  0  0  0  0
   -3.5724   -6.1875    0.0000 C   0  0  0  0  0  0  0  0  0  0  0  0
   -4.2868   -6.6000    0.0000 C   0  0  0  0  0  0  0  0  0  0  0  0
   -5.0013   -6.1875    0.0000 C   0  0  0  0  0  0  0  0  0  0  0  0
   -5.0013   -5.3625    0.0000 C   0  0  0  0  0  0  0  0  0  0  0  0
   -4.2868   -4.9500    0.0000 C   0  0  0  0  0  0  0  0  0  0  0  0
   -4.2868   -4.1250    0.0000 F   0  0  0  0  0  0  0  0  0  0  0  0
   -3.5724   -5.3625    0.0000 C   0  0  0  0  0  0  0  0  0  0  0  0
   -2.8579   -4.9500    0.0000 N   0  0  0  0  0  0  0  0  0  0  0  0
   -2.1434   -5.3625    0.0000 C   0  0  0  0  0  0  0  0  0  0  0  0
   -2.8579   -4.1250    0.0000 C   0  0  0  0  0  0  0  0  0  0  0  0
   -3.5724   -3.7125    0.0000 O   0  0  0  0  0  0  0  0  0  0  0  0
   -2.1434   -3.7125    0.0000 C   0  0  0  0  0  0  0  0  0  0  0  0
   -2.1434   -2.8875    0.0000 C   0  0  0  0  0  0  0  0  0  0  0  0
   -1.4289   -2.4750    0.0000 C   0  0  0  0  0  0  0  0  0  0  0  0
   -0.7145   -2.8875    0.0000 C   0  0  0  0  0  0  0  0  0  0  0  0
    0.0000   -2.4750    0.0000 N   0  0  0  0  0  0  0  0  0  0  0  0
    0.0000   -1.6500    0.0000 C   0  0  0  0  0  0  0  0  0  0  0  0
   -0.7145   -1.2375    0.0000 O   0  0  0  0  0  0  0  0  0  0  0  0
    0.7145   -1.2375    0.0000 C   0  0  0  0  0  0  0  0  0  0  0  0
    0.7145   -0.4125    0.0000 C   0  0  0  0  0  0  0  0  0  0  0  0
    1.4289    0.0000    0.0000 C   0  0  0  0  0  0  0  0  0  0  0  0
    2.1434   -0.4125    0.0000 C   0  0  0  0  0  0  0  0  0  0  0  0
    2.8579    0.0000    0.0000 C   0  0  0  0  0  0  0  0  0  0  0  0
    3.5724   -0.4125    0.0000 C   0  0  0  0  0  0  0  0  0  0  0  0
    3.5724   -1.2375    0.0000 C   0  0  0  0  0  0  0  0  0  0  0  0
    2.8579   -1.6500    0.0000 C   0  0  0  0  0  0  0  0  0  0  0  0
    2.1434   -1.2375    0.0000 C   0  0  0  0  0  0  0  0  0  0  0  0
    1.4289   -1.6500    0.0000 C   0  0  0  0  0  0  0  0  0  0  0  0
    1.4289   -2.4750    0.0000 O   0  0  0  0  0  0  0  0  0  0  0  0
   -0.7145   -3.7125    0.0000 C   0  0  0  0  0  0  0  0  0  0  0  0
   -1.4289   -4.1250    0.0000 C   0  0  0  0  0  0  0  0  0  0  0  0
  1  2  1  0  0  0  0
  2  3  1  0  0  0  0
  3  4  2  0  0  0  0
  4  5  1  0  0  0  0
  5  6  2  0  0  0  0
  6  7  1  0  0  0  0
  7  8  1  0  0  0  0
  7  9  2  0  0  0  0
  3  9  1  0  0  0  0
  9 10  1  0  0  0  0
 10 11  1  0  0  0  0
 10 12  1  0  0  0  0
 12 13  2  0  0  0  0
 12 14  1  0  0  0  0
 14 15  2  0  0  0  0
 15 16  1  0  0  0  0
 16 17  2  0  0  0  0
 17 18  1  0  0  0  0
 18 19  1  0  0  0  0
 19 20  2  0  0  0  0
 19 21  1  0  0  0  0
 21 22  2  0  0  0  0
 22 23  1  0  0  0  0
 23 24  2  0  0  0  0
 24 25  1  0  0  0  0
 25 26  2  0  0  0  0
 26 27  1  0  0  0  0
 27 28  2  0  0  0  0
 28 29  1  0  0  0  0
 24 29  1  0  0  0  0
 29 30  2  0  0  0  0
 21 30  1  0  0  0  0
 30 31  1  0  0  0  0
 17 32  1  0  0  0  0
 32 33  2  0  0  0  0
 14 33  1  0  0  0  0
M  END
> <ID>
CPD_160

$$$$
CPD_165
  Mrv1822 09091914012D          

 19 20  0  0  0  0            999 V2000
    2.1434   -1.2375    0.0000 C   0  0  0  0  0  0  0  0  0  0  0  0
    1.4289   -1.6500    0.0000 O   0  0  0  0  0  0  0  0  0  0  0  0
    1.4289   -2.4750    0.0000 C   0  0  0  0  0  0  0  0  0  0  0  0
    2.1434   -2.8875    0.0000 C   0  0  0  0  0  0  0  0  0  0  0  0
    2.1434   -3.7125    0.0000 C   0  0  0  0  0  0  0  0  0  0  0  0
    1.4289   -4.1250    0.0000 C   0  0  0  0  0  0  0  0  0  0  0  0
    0.7145   -3.7125    0.0000 C   0  0  0  0  0  0  0  0  0  0  0  0
    0.0000   -4.1250    0.0000 F   0  0  0  0  0  0  0  0  0  0  0  0
    0.7145   -2.8875    0.0000 C   0  0  0  0  0  0  0  0  0  0  0  0
    0.0000   -2.4750    0.0000 N   0  0  0  0  0  0  0  0  0  0  0  0
    0.0000   -1.6500    0.0000 C   0  0  0  0  0  0  0  0  0  0  0  0
   -0.7145   -2.8875    0.0000 C   0  0  0  0  0  0  0  0  0  0  0  0
   -0.7145   -3.7125    0.0000 O   0  0  0  0  0  0  0  0  0  0  0  0
   -1.4289   -2.4750    0.0000 C   0  0  0  0  0  0  0  0  0  0  0  0
   -2.1434   -2.8875    0.0000 C   0  0  0  0  0  0  0  0  0  0  0  0
   -2.8579   -2.4750    0.0000 C   0  0  0  0  0  0  0  0  0  0  0  0
   -2.8579   -1.6500    0.0000 C   0  0  0  0  0  0  0  0  0  0  0  0
   -2.1434   -1.2375    0.0000 C   0  0  0  0  0  0  0  0  0  0  0  0
   -1.4289   -1.6500    0.0000 C   0  0  0  0  0  0  0  0  0  0  0  0
  1  2  1  0  0  0  0
  2  3  1  0  0  0  0
  3  4  2  0  0  0  0
  4  5  1  0  0  0  0
  5  6  2  0  0  0  0
  6  7  1  0  0  0  0
  7  8  1  0  0  0  0
  7  9  2  0  0  0  0
  3  9  1  0  0  0  0
  9 10  1  0  0  0  0
 10 11  1  0  0  0  0
 10 12  1  0  0  0  0
 12 13  2  0  0  0  0
 12 14  1  0  0  0  0
 14 15  2  0  0  0  0
 15 16  1  0  0  0  0
 16 17  2  0  0  0  0
 17 18  1  0  0  0  0
 18 19  2  0  0  0  0
 14 19  1  0  0  0  0
M  END
> <ID>
CPD_165

$$$$
CPD_170
  Mrv1822 09091914012D          

 20 21  0  0  0  0            999 V2000
    0.7145   -0.4125    0.0000 C   0  0  0  0  0  0  0  0  0  0  0  0
    0.7145   -1.2375    0.0000 O   0  0  0  0  0  0  0  0  0  0  0  0
    0.0000   -1.6500    0.0000 C   0  0  0  0  0  0  0  0  0  0  0  0
    0.0000   -2.4750    0.0000 C   0  0  0  0  0  0  0  0  0  0  0  0
    0.7145   -2.8875    0.0000 N   0  0  0  0  0  0  0  0  0  0  0  0
    1.4289   -2.4750    0.0000 C   0  0  0  0  0  0  0  0  0  0  0  0
    1.4289   -1.6500    0.0000 O   0  0  0  0  0  0  0  0  0  0  0  0
    2.1434   -2.8875    0.0000 C   0  0  0  0  0  0  0  0  0  0  0  0
    2.8579   -2.4750    0.0000 O   0  0  0  0  0  0  0  0  0  0  0  0
    3.5724   -2.8875    0.0000 C   0  0  0  0  0  0  0  0  0  0  0  0
    4.2868   -2.4750    0.0000 C   0  0  0  0  0  0  0  0  0  0  0  0
    5.0013   -2.8875    0.0000 C   0  0  0  0  0  0  0  0  0  0  0  0
    5.0013   -3.7125    0.0000 C   0  0  0  0  0  0  0  0  0  0  0  0
    4.2868   -4.1250    0.0000 C   0  0  0  0  0  0  0  0  0  0  0  0
    3.5724   -3.7125    0.0000 C   0  0  0  0  0  0  0  0  0  0  0  0
   -0.7145   -2.8875    0.0000 C   0  0  0  0  0  0  0  0  0  0  0  0
   -0.7145   -3.7125    0.0000 Cl  0  0  0  0  0  0  0  0  0  0  0  0
   -1.4289   -2.4750    0.0000 C   0  0  0  0  0  0  0  0  0  0  0  0
   -1.4289   -1.6500    0.0000 C   0  0  0  0  0  0  0  0  0  0  0  0
   -0.7145   -1.2375    0.0000 C   0  0  0  0  0  0  0  0  0  0  0  0
  1  2  1  0  0  0  0
  2  3  1  0  0  0  0
  3  4  2  0  0  0  0
  4  5  1  0  0  0  0
  5  6  1  0  0  0  0
  6  7  2  0  0  0  0
  6  8  1  0  0  0  0
  8  9  1  0  0  0  0
  9 10  1  0  0  0  0
 10 11  2  0  0  0  0
 11 12  1  0  0  0  0
 12 13  2  0  0  0  0
 13 14  1  0  0  0  0
 14 15  2  0  0  0  0
 10 15  1  0  0  0  0
  4 16  1  0  0  0  0
 16 17  1  0  0  0  0
 16 18  2  0  0  0  0
 18 19  1  0  0  0  0
 19 20  2  0  0  0  0
  3 20  1  0  0  0  0
M  END
> <ID>
CPD_170

$$$$
CPD_175
  Mrv1822 09091914012D          

 20 21  0  0  0  0            999 V2000
   -0.7145   -1.2375    0.0000 C   0  0  0  0  0  0  0  0  0  0  0  0
    0.0000   -1.6500    0.0000 O   0  0  0  0  0  0  0  0  0  0  0  0
    0.0000   -2.4750    0.0000 C   0  0  0  0  0  0  0  0  0  0  0  0
    0.7145   -2.8875    0.0000 C   0  0  0  0  0  0  0  0  0  0  0  0
    1.4289   -2.4750    0.0000 N   0  0  0  0  0  0  0  0  0  0  0  0
    2.1434   -2.8875    0.0000 C   0  0  0  0  0  0  0  0  0  0  0  0
    2.1434   -3.7125    0.0000 O   0  0  0  0  0  0  0  0  0  0  0  0
    2.8579   -2.4750    0.0000 C   0  0  0  0  0  0  0  0  0  0  0  0
    2.8579   -1.6500    0.0000 C   0  0  0  0  0  0  0  0  0  0  0  0
    3.5724   -1.2375    0.0000 C   0  0  0  0  0  0  0  0  0  0  0  0
    4.2868   -1.6500    0.0000 C   0  0  0  0  0  0  0  0  0  0  0  0
    4.2868   -2.4750    0.0000 C   0  0  0  0  0  0  0  0  0  0  0  0
    3.5724   -2.8875    0.0000 C   0  0  0  0  0  0  0  0  0  0  0  0
    5.0013   -2.8875    0.0000 C   0  0  0  0  0  0  0  0  0  0  0  0
    5.7158   -3.3000    0.0000 N   0  0  0  0  0  0  0  0  0  0  0  0
    0.7145   -3.7125    0.0000 C   0  0  0  0  0  0  0  0  0  0  0  0
    1.4289   -4.1250    0.0000 Cl  0  0  0  0  0  0  0  0  0  0  0  0
    0.0000   -4.1250    0.0000 C   0  0  0  0  0  0  0  0  0  0  0  0
   -0.7145   -3.7125    0.0000 C   0  0  0  0  0  0  0  0  0  0  0  0
   -0.7145   -2.8875    0.0000 C   0  0  0  0  0  0  0  0  0  0  0  0
  1  2  1  0  0  0  0
  2  3  1  0  0  0  0
  3  4  2  0  0  0  0
  4  5  1  0  0  0  0
  5  6  1  0  0  0  0
  6  7  2  0  0  0  0
  6  8  1  0  0  0  0
  8  9  2  0  0  0  0
  9 10  1  0  0  0  0
 10 11  2  0  0  0  0
 11 12  1  0  0  0  0
 12 13  2  0  0  0  0
  8 13  1  0  0  0  0
 12 14  1  0  0  0  0
 14 15  3  0  0  0  0
  4 16  1  0  0  0  0
 16 17  1  0  0  0  0
 16 18  2  0  0  0  0
 18 19  1  0  0  0  0
 19 20  2  0  0  0  0
  3 20  1  0  0  0  0
M  END
> <ID>
CPD_175

$$$$
CPD_180
  Mrv1822 09091914012D          

 31 35  0  0  0  0            999 V2000
   -4.8692   -2.7845    0.0000 C   0  0  0  0  0  0  0  0  0  0  0  0
   -4.2561   -3.3366    0.0000 C   0  0  0  0  0  0  0  0  0  0  0  0
   -4.3423   -4.1570    0.0000 N   0  0  0  0  0  0  0  0  0  0  0  0
   -3.5887   -4.4926    0.0000 N   0  0  0  0  0  0  0  0  0  0  0  0
   -3.0366   -3.8795    0.0000 C   0  0  0  0  0  0  0  0  0  0  0  0
   -3.4491   -3.1650    0.0000 C   0  0  0  0  0  0  0  0  0  0  0  0
   -2.8971   -2.5519    0.0000 C   0  0  0  0  0  0  0  0  0  0  0  0
   -2.1434   -2.8875    0.0000 C   0  0  0  0  0  0  0  0  0  0  0  0
   -2.2296   -3.7080    0.0000 S   0  0  0  0  0  0  0  0  0  0  0  0
   -1.4289   -2.4750    0.0000 C   0  0  0  0  0  0  0  0  0  0  0  0
   -0.7145   -2.8875    0.0000 O   0  0  0  0  0  0  0  0  0  0  0  0
   -1.4289   -1.6500    0.0000 N   0  0  0  0  0  0  0  0  0  0  0  0
   -0.7145   -1.2375    0.0000 C   0  0  0  0  0  0  0  0  0  0  0  0
    0.0000   -1.6500    0.0000 C   0  0  0  0  0  0  0  0  0  0  0  0
    0.7145   -1.2375    0.0000 C   0  0  0  0  0  0  0  0  0  0  0  0
    0.7145   -0.4125    0.0000 C   0  0  0  0  0  0  0  0  0  0  0  0
    0.0000   -0.0000    0.0000 O   0  0  0  0  0  0  0  0  0  0  0  0
   -0.7145   -0.4125    0.0000 C   0  0  0  0  0  0  0  0  0  0  0  0
   -1.4289    0.0000    0.0000 O   0  0  0  0  0  0  0  0  0  0  0  0
    1.4289   -0.0000    0.0000 C   0  0  0  0  0  0  0  0  0  0  0  0
    2.1434   -0.4125    0.0000 C   0  0  0  0  0  0  0  0  0  0  0  0
    2.8579   -0.0000    0.0000 O   0  0  0  0  0  0  0  0  0  0  0  0
    2.1434   -1.2375    0.0000 C   0  0  0  0  0  0  0  0  0  0  0  0
    1.4289   -1.6500    0.0000 C   0  0  0  0  0  0  0  0  0  0  0  0
   -3.4171   -5.2996    0.0000 C   0  0  0  0  0  0  0  0  0  0  0  0
   -2.6325   -5.5545    0.0000 C   0  0  0  0  0  0  0  0  0  0  0  0
   -2.4610   -6.3615    0.0000 C   0  0  0  0  0  0  0  0  0  0  0  0
   -3.0741   -6.9135    0.0000 C   0  0  0  0  0  0  0  0  0  0  0  0
   -3.8587   -6.6586    0.0000 C   0  0  0  0  0  0  0  0  0  0  0  0
   -4.4718   -7.2106    0.0000 Cl  0  0  0  0  0  0  0  0  0  0  0  0
   -4.0302   -5.8516    0.0000 C   0  0  0  0  0  0  0  0  0  0  0  0
  1  2  1  0  0  0  0
  2  3  2  0  0  0  0
  3  4  1  0  0  0  0
  4  5  1  0  0  0  0
  5  6  2  0  0  0  0
  2  6  1  0  0  0  0
  6  7  1  0  0  0  0
  7  8  2  0  0  0  0
  8  9  1  0  0  0  0
  5  9  1  0  0  0  0
  8 10  1  0  0  0  0
 10 11  2  0  0  0  0
 10 12  1  0  0  0  0
 12 13  1  0  0  0  0
 13 14  2  0  0  0  0
 14 15  1  0  0  0  0
 15 16  2  0  0  0  0
 16 17  1  0  0  0  0
 17 18  1  0  0  0  0
 13 18  1  0  0  0  0
 18 19  2  0  0  0  0
 16 20  1  0  0  0  0
 20 21  2  0  0  0  0
 21 22  1  0  0  0  0
 21 23  1  0  0  0  0
 23 24  2  0  0  0  0
 15 24  1  0  0  0  0
  4 25  1  0  0  0  0
 25 26  2  0  0  0  0
 26 27  1  0  0  0  0
 27 28  2  0  0  0  0
 28 29  1  0  0  0  0
 29 30  1  0  0  0  0
 29 31  2  0  0  0  0
 25 31  1  0  0  0  0
M  END
> <ID>
CPD_180

$$$$
CPD_185
  Mrv1822 09091914012D          

 19 19  0  0  0  0            999 V2000
    1.9967    5.2393    0.0000 C   0  0  0  0  0  0  0  0  0  0  0  0
    1.9967    4.4143    0.0000 C   0  0  0  0  0  0  0  0  0  0  0  0
    1.1717    4.4143    0.0000 C   0  0  0  0  0  0  0  0  0  0  0  0
    2.8217    4.4143    0.0000 C   0  0  0  0  0  0  0  0  0  0  0  0
    1.9967    3.5893    0.0000 C   0  0  0  0  0  0  0  0  0  0  0  0
    2.7112    3.1768    0.0000 O   0  0  0  0  0  0  0  0  0  0  0  0
    1.2822    3.1768    0.0000 C   0  0  0  0  0  0  0  0  0  0  0  0
    1.2822    2.3518    0.0000 C   0  0  0  0  0  0  0  0  0  0  0  0
    1.9967    1.9393    0.0000 O   0  0  0  0  0  0  0  0  0  0  0  0
    0.5678    1.9393    0.0000 N   0  0  0  0  0  0  0  0  0  0  0  0
    0.5678    1.1143    0.0000 C   0  0  0  0  0  0  0  0  0  0  0  0
    1.2352    0.6294    0.0000 N   0  0  0  0  0  0  0  0  0  0  0  0
    0.9803   -0.1553    0.0000 O   0  0  0  0  0  0  0  0  0  0  0  0
    0.1553   -0.1553    0.0000 C   0  0  0  0  0  0  0  0  0  0  0  0
   -0.0997    0.6294    0.0000 N   0  0  0  0  0  0  0  0  0  0  0  0
   -0.3297   -0.8227    0.0000 C   0  0  0  0  0  0  0  0  0  0  0  0
   -0.8146   -1.4901    0.0000 F   0  0  0  0  0  0  0  0  0  0  0  0
   -0.9971   -0.3378    0.0000 F   0  0  0  0  0  0  0  0  0  0  0  0
    0.3378   -1.3076    0.0000 F   0  0  0  0  0  0  0  0  0  0  0  0
  1  2  1  0  0  0  0
  2  3  1  0  0  0  0
  2  4  1  0  0  0  0
  2  5  1  0  0  0  0
  5  6  2  0  0  0  0
  5  7  1  0  0  0  0
  7  8  1  0  0  0  0
  8  9  2  0  0  0  0
  8 10  1  0  0  0  0
 10 11  1  0  0  0  0
 11 12  2  0  0  0  0
 12 13  1  0  0  0  0
 13 14  1  0  0  0  0
 14 15  2  0  0  0  0
 11 15  1  0  0  0  0
 14 16  1  0  0  0  0
 16 17  1  0  0  0  0
 16 18  1  0  0  0  0
 16 19  1  0  0  0  0
M  END
> <ID>
CPD_185

$$$$
CPD_190
  Mrv1822 09091914012D          

 17 17  0  0  0  0            999 V2000
   -0.6865   -2.4373    0.0000 C   0  0  0  0  0  0  0  0  0  0  0  0
    0.0280   -2.0248    0.0000 C   0  0  0  0  0  0  0  0  0  0  0  0
    0.0280   -1.1998    0.0000 C   0  0  0  0  0  0  0  0  0  0  0  0
    0.7425   -2.4373    0.0000 C   0  0  0  0  0  0  0  0  0  0  0  0
    0.7425   -3.2623    0.0000 N   0  0  0  0  0  0  0  0  0  0  0  0
    1.4569   -2.0248    0.0000 C   0  0  0  0  0  0  0  0  0  0  0  0
    1.4569   -1.1998    0.0000 O   0  0  0  0  0  0  0  0  0  0  0  0
    2.1714   -2.4373    0.0000 N   0  0  0  0  0  0  0  0  0  0  0  0
    2.8859   -2.0248    0.0000 C   0  0  0  0  0  0  0  0  0  0  0  0
    2.9721   -1.2043    0.0000 N   0  0  0  0  0  0  0  0  0  0  0  0
    3.7791   -1.0328    0.0000 O   0  0  0  0  0  0  0  0  0  0  0  0
    4.1916   -1.7472    0.0000 C   0  0  0  0  0  0  0  0  0  0  0  0
    3.6396   -2.3603    0.0000 N   0  0  0  0  0  0  0  0  0  0  0  0
    5.0121   -1.8335    0.0000 C   0  0  0  0  0  0  0  0  0  0  0  0
    5.8325   -1.9197    0.0000 F   0  0  0  0  0  0  0  0  0  0  0  0
    4.9258   -2.6540    0.0000 F   0  0  0  0  0  0  0  0  0  0  0  0
    5.0983   -1.0130    0.0000 F   0  0  0  0  0  0  0  0  0  0  0  0
  1  2  1  0  0  0  0
  2  3  1  0  0  0  0
  2  4  1  0  0  0  0
  4  5  1  0  0  0  0
  4  6  1  0  0  0  0
  6  7  2  0  0  0  0
  6  8  1  0  0  0  0
  8  9  1  0  0  0  0
  9 10  2  0  0  0  0
 10 11  1  0  0  0  0
 11 12  1  0  0  0  0
 12 13  2  0  0  0  0
  9 13  1  0  0  0  0
 12 14  1  0  0  0  0
 14 15  1  0  0  0  0
 14 16  1  0  0  0  0
 14 17  1  0  0  0  0
M  END
> <ID>
CPD_190

$$$$
CPD_195
  Mrv1822 09091914012D          

 29 31  0  0  0  0            999 V2000
   -3.9284    2.1599    0.0000 C   0  0  0  0  0  0  0  0  0  0  0  0
   -4.3409    1.4455    0.0000 C   0  0  0  0  0  0  0  0  0  0  0  0
   -3.9284    0.7310    0.0000 C   0  0  0  0  0  0  0  0  0  0  0  0
   -3.1034    0.7310    0.0000 C   0  0  0  0  0  0  0  0  0  0  0  0
   -2.6909    0.0165    0.0000 C   0  0  0  0  0  0  0  0  0  0  0  0
   -1.8659    0.0165    0.0000 N   0  0  0  0  0  0  0  0  0  0  0  0
   -1.4534   -0.6979    0.0000 C   0  0  0  0  0  0  0  0  0  0  0  0
   -1.8659   -1.4124    0.0000 O   0  0  0  0  0  0  0  0  0  0  0  0
   -0.6284   -0.6979    0.0000 C   0  0  0  0  0  0  0  0  0  0  0  0
   -0.1435   -1.3654    0.0000 N   0  0  0  0  0  0  0  0  0  0  0  0
    0.6411   -1.1104    0.0000 N   0  0  0  0  0  0  0  0  0  0  0  0
    0.6411   -0.2854    0.0000 C   0  0  0  0  0  0  0  0  0  0  0  0
   -0.1435   -0.0305    0.0000 C   0  0  0  0  0  0  0  0  0  0  0  0
    1.3556    0.1271    0.0000 N   0  0  0  0  0  0  0  0  0  0  0  0
    2.0701   -0.2854    0.0000 C   0  0  0  0  0  0  0  0  0  0  0  0
    2.7845    0.1271    0.0000 C   0  0  0  0  0  0  0  0  0  0  0  0
    2.0701   -1.1104    0.0000 C   0  0  0  0  0  0  0  0  0  0  0  0
    1.3556   -1.5229    0.0000 C   0  0  0  0  0  0  0  0  0  0  0  0
    1.3556   -2.3479    0.0000 C   0  0  0  0  0  0  0  0  0  0  0  0
    1.3556   -3.1729    0.0000 F   0  0  0  0  0  0  0  0  0  0  0  0
    0.5306   -2.3479    0.0000 F   0  0  0  0  0  0  0  0  0  0  0  0
    2.1806   -2.3479    0.0000 F   0  0  0  0  0  0  0  0  0  0  0  0
   -3.1034   -0.6979    0.0000 C   0  0  0  0  0  0  0  0  0  0  0  0
   -3.9284   -0.6979    0.0000 C   0  0  0  0  0  0  0  0  0  0  0  0
   -4.3409    0.0165    0.0000 C   0  0  0  0  0  0  0  0  0  0  0  0
   -5.1659    1.4455    0.0000 S   0  0  0  0  0  0  0  0  0  0  0  0
   -5.9909    1.4455    0.0000 C   0  0  0  0  0  0  0  0  0  0  0  0
   -5.1659    2.2705    0.0000 O   0  0  0  0  0  0  0  0  0  0  0  0
   -5.1659    0.6205    0.0000 O   0  0  0  0  0  0  0  0  0  0  0  0
  1  2  1  0  0  0  0
  2  3  1  0  0  0  0
  3  4  2  0  0  0  0
  4  5  1  0  0  0  0
  5  6  1  0  0  0  0
  6  7  1  0  0  0  0
  7  8  2  0  0  0  0
  7  9  1  0  0  0  0
  9 10  2  0  0  0  0
 10 11  1  0  0  0  0
 11 12  1  0  0  0  0
 12 13  2  0  0  0  0
  9 13  1  0  0  0  0
 12 14  1  0  0  0  0
 14 15  2  0  0  0  0
 15 16  1  0  0  0  0
 15 17  1  0  0  0  0
 17 18  2  0  0  0  0
 11 18  1  0  0  0  0
 18 19  1  0  0  0  0
 19 20  1  0  0  0  0
 19 21  1  0  0  0  0
 19 22  1  0  0  0  0
  5 23  2  0  0  0  0
 23 24  1  0  0  0  0
 24 25  2  0  0  0  0
  3 25  1  0  0  0  0
  2 26  1  0  0  0  0
 26 27  1  0  0  0  0
 26 28  2  0  0  0  0
 26 29  2  0  0  0  0
M  END
> <ID>
CPD_195

$$$$
CPD_200
  Mrv1822 09091914012D          

 32 34  0  0  1  0            999 V2000
    0.8212    6.8277    0.0000 C   0  0  0  0  0  0  0  0  0  0  0  0
    0.1067    7.2402    0.0000 C   0  0  0  0  0  0  0  0  0  0  0  0
   -0.6078    6.8277    0.0000 C   0  0  0  0  0  0  0  0  0  0  0  0
   -0.6078    6.0027    0.0000 C   0  0  0  0  0  0  0  0  0  0  0  0
   -1.3222    5.5902    0.0000 C   0  0  0  0  0  0  0  0  0  0  0  0
   -1.3222    4.7652    0.0000 N   0  0  0  0  0  0  0  0  0  0  0  0
   -2.0367    4.3527    0.0000 C   0  0  0  0  0  0  0  0  0  0  0  0
   -2.7512    4.7652    0.0000 O   0  0  0  0  0  0  0  0  0  0  0  0
   -2.0367    3.5277    0.0000 C   0  0  1  0  0  0  0  0  0  0  0  0
   -1.3693    3.0428    0.0000 C   0  0  0  0  0  0  0  0  0  0  0  0
   -1.6242    2.2581    0.0000 N   0  0  0  0  0  0  0  0  0  0  0  0
   -2.4492    2.2581    0.0000 C   0  0  0  0  0  0  0  0  0  0  0  0
   -2.7041    3.0428    0.0000 C   0  0  2  0  0  0  0  0  0  0  0  0
   -3.4888    3.2977    0.0000 C   0  0  0  0  0  0  0  0  0  0  0  0
   -4.1562    2.8128    0.0000 C   0  0  0  0  0  0  0  0  0  0  0  0
   -4.8236    3.2977    0.0000 C   0  0  0  0  0  0  0  0  0  0  0  0
   -4.5687    4.0823    0.0000 C   0  0  0  0  0  0  0  0  0  0  0  0
   -3.7437    4.0823    0.0000 S   0  0  0  0  0  0  0  0  0  0  0  0
   -1.1393    1.5907    0.0000 C   0  0  0  0  0  0  0  0  0  0  0  0
   -0.3188    1.6769    0.0000 O   0  0  0  0  0  0  0  0  0  0  0  0
   -1.4748    0.8370    0.0000 O   0  0  0  0  0  0  0  0  0  0  0  0
   -0.9899    0.1696    0.0000 C   0  0  0  0  0  0  0  0  0  0  0  0
   -0.5050   -0.4979    0.0000 C   0  0  0  0  0  0  0  0  0  0  0  0
   -0.3225    0.6545    0.0000 C   0  0  0  0  0  0  0  0  0  0  0  0
   -1.6574   -0.3153    0.0000 C   0  0  0  0  0  0  0  0  0  0  0  0
   -2.0367    6.0027    0.0000 C   0  0  0  0  0  0  0  0  0  0  0  0
   -2.0367    6.8277    0.0000 C   0  0  0  0  0  0  0  0  0  0  0  0
   -1.3222    7.2402    0.0000 C   0  0  0  0  0  0  0  0  0  0  0  0
    0.1067    8.0652    0.0000 S   0  0  0  0  0  0  0  0  0  0  0  0
    0.1067    8.8902    0.0000 C   0  0  0  0  0  0  0  0  0  0  0  0
    0.9317    8.0652    0.0000 O   0  0  0  0  0  0  0  0  0  0  0  0
   -0.7183    8.0652    0.0000 O   0  0  0  0  0  0  0  0  0  0  0  0
  1  2  1  0  0  0  0
  2  3  1  0  0  0  0
  3  4  2  0  0  0  0
  4  5  1  0  0  0  0
  5  6  1  0  0  0  0
  6  7  1  0  0  0  0
  7  8  2  0  0  0  0
  9  7  1  1  0  0  0
  9 10  1  0  0  0  0
 10 11  1  0  0  0  0
 11 12  1  0  0  0  0
 13 12  1  0  0  0  0
  9 13  1  0  0  0  0
 13 14  1  6  0  0  0
 14 15  2  0  0  0  0
 15 16  1  0  0  0  0
 16 17  2  0  0  0  0
 17 18  1  0  0  0  0
 14 18  1  0  0  0  0
 11 19  1  0  0  0  0
 19 20  2  0  0  0  0
 19 21  1  0  0  0  0
 21 22  1  0  0  0  0
 22 23  1  0  0  0  0
 22 24  1  0  0  0  0
 22 25  1  0  0  0  0
  5 26  2  0  0  0  0
 26 27  1  0  0  0  0
 27 28  2  0  0  0  0
  3 28  1  0  0  0  0
  2 29  1  0  0  0  0
 29 30  1  0  0  0  0
 29 31  2  0  0  0  0
 29 32  2  0  0  0  0
M  END
> <ID>
CPD_200

$$$$
CPD_205
  Mrv1822 09091914012D          

 26 27  0  0  0  0            999 V2000
   -3.5724   -1.2375    0.0000 C   0  0  0  0  0  0  0  0  0  0  0  0
   -3.5724   -2.0625    0.0000 C   0  0  0  0  0  0  0  0  0  0  0  0
   -2.8579   -2.4750    0.0000 C   0  0  0  0  0  0  0  0  0  0  0  0
   -2.1434   -2.0625    0.0000 C   0  0  0  0  0  0  0  0  0  0  0  0
   -1.4289   -2.4750    0.0000 C   0  0  0  0  0  0  0  0  0  0  0  0
   -0.7145   -2.0625    0.0000 N   0  0  0  0  0  0  0  0  0  0  0  0
    0.0000   -2.4750    0.0000 C   0  0  0  0  0  0  0  0  0  0  0  0
    0.0000   -3.3000    0.0000 O   0  0  0  0  0  0  0  0  0  0  0  0
    0.7145   -2.0625    0.0000 C   0  0  0  0  0  0  0  0  0  0  0  0
    0.7145   -1.2375    0.0000 N   0  0  0  0  0  0  0  0  0  0  0  0
    1.4289   -2.4750    0.0000 C   0  0  0  0  0  0  0  0  0  0  0  0
    2.1434   -2.0625    0.0000 C   0  0  0  0  0  0  0  0  0  0  0  0
    2.1434   -1.2375    0.0000 C   0  0  0  0  0  0  0  0  0  0  0  0
    1.4289   -0.8250    0.0000 F   0  0  0  0  0  0  0  0  0  0  0  0
    2.8579   -0.8250    0.0000 C   0  0  0  0  0  0  0  0  0  0  0  0
    3.5724   -1.2375    0.0000 C   0  0  0  0  0  0  0  0  0  0  0  0
    4.2868   -0.8250    0.0000 F   0  0  0  0  0  0  0  0  0  0  0  0
    3.5724   -2.0625    0.0000 C   0  0  0  0  0  0  0  0  0  0  0  0
    2.8579   -2.4750    0.0000 C   0  0  0  0  0  0  0  0  0  0  0  0
   -1.4289   -3.3000    0.0000 C   0  0  0  0  0  0  0  0  0  0  0  0
   -2.1434   -3.7125    0.0000 C   0  0  0  0  0  0  0  0  0  0  0  0
   -2.8579   -3.3000    0.0000 C   0  0  0  0  0  0  0  0  0  0  0  0
   -4.2868   -2.4750    0.0000 S   0  0  0  0  0  0  0  0  0  0  0  0
   -5.0013   -2.8875    0.0000 C   0  0  0  0  0  0  0  0  0  0  0  0
   -4.6993   -1.7605    0.0000 O   0  0  0  0  0  0  0  0  0  0  0  0
   -3.8743   -3.1895    0.0000 O   0  0  0  0  0  0  0  0  0  0  0  0
  1  2  1  0  0  0  0
  2  3  1  0  0  0  0
  3  4  2  0  0  0  0
  4  5  1  0  0  0  0
  5  6  1  0  0  0  0
  6  7  1  0  0  0  0
  7  8  2  0  0  0  0
  7  9  1  0  0  0  0
  9 10  1  0  0  0  0
  9 11  1  0  0  0  0
 11 12  1  0  0  0  0
 12 13  2  0  0  0  0
 13 14  1  0  0  0  0
 13 15  1  0  0  0  0
 15 16  2  0  0  0  0
 16 17  1  0  0  0  0
 16 18  1  0  0  0  0
 18 19  2  0  0  0  0
 12 19  1  0  0  0  0
  5 20  2  0  0  0  0
 20 21  1  0  0  0  0
 21 22  2  0  0  0  0
  3 22  1  0  0  0  0
  2 23  1  0  0  0  0
 23 24  1  0  0  0  0
 23 25  2  0  0  0  0
 23 26  2  0  0  0  0
M  END
> <ID>
CPD_205

$$$$
CPD_210
  Mrv1822 09091914012D          

 27 28  0  0  0  0            999 V2000
    2.1434    0.4125    0.0000 C   0  0  0  0  0  0  0  0  0  0  0  0
    2.1434   -0.4125    0.0000 C   0  0  0  0  0  0  0  0  0  0  0  0
    1.3184   -0.4125    0.0000 C   0  0  0  0  0  0  0  0  0  0  0  0
    2.9684   -0.4125    0.0000 C   0  0  0  0  0  0  0  0  0  0  0  0
    2.1434   -1.2375    0.0000 C   0  0  0  0  0  0  0  0  0  0  0  0
    2.8579   -1.6500    0.0000 O   0  0  0  0  0  0  0  0  0  0  0  0
    1.4289   -1.6500    0.0000 N   0  0  0  0  0  0  0  0  0  0  0  0
    1.4289   -2.4750    0.0000 C   0  0  0  0  0  0  0  0  0  0  0  0
    2.1434   -2.8875    0.0000 C   0  0  0  0  0  0  0  0  0  0  0  0
    2.1434   -3.7125    0.0000 C   0  0  0  0  0  0  0  0  0  0  0  0
    1.4289   -4.1250    0.0000 C   0  0  0  0  0  0  0  0  0  0  0  0
    1.4289   -4.9500    0.0000 F   0  0  0  0  0  0  0  0  0  0  0  0
    0.7145   -3.7125    0.0000 C   0  0  0  0  0  0  0  0  0  0  0  0
    0.0000   -4.1250    0.0000 F   0  0  0  0  0  0  0  0  0  0  0  0
    0.7145   -2.8875    0.0000 C   0  0  0  0  0  0  0  0  0  0  0  0
    0.0000   -2.4750    0.0000 C   0  0  0  0  0  0  0  0  0  0  0  0
    0.0000   -1.6500    0.0000 O   0  0  0  0  0  0  0  0  0  0  0  0
   -0.7145   -2.8875    0.0000 N   0  0  0  0  0  0  0  0  0  0  0  0
   -1.4289   -2.4750    0.0000 C   0  0  0  0  0  0  0  0  0  0  0  0
   -2.1434   -2.8875    0.0000 C   0  0  0  0  0  0  0  0  0  0  0  0
   -2.8579   -2.4750    0.0000 C   0  0  0  0  0  0  0  0  0  0  0  0
   -3.5724   -2.8875    0.0000 Br  0  0  0  0  0  0  0  0  0  0  0  0
   -2.8579   -1.6500    0.0000 C   0  0  0  0  0  0  0  0  0  0  0  0
   -3.5724   -1.2375    0.0000 Br  0  0  0  0  0  0  0  0  0  0  0  0
   -2.1434   -1.2375    0.0000 C   0  0  0  0  0  0  0  0  0  0  0  0
   -1.4289   -1.6500    0.0000 C   0  0  0  0  0  0  0  0  0  0  0  0
   -0.7145   -1.2375    0.0000 N   0  0  0  0  0  0  0  0  0  0  0  0
  1  2  1  0  0  0  0
  2  3  1  0  0  0  0
  2  4  1  0  0  0  0
  2  5  1  0  0  0  0
  5  6  2  0  0  0  0
  5  7  1  0  0  0  0
  7  8  1  0  0  0  0
  8  9  2  0  0  0  0
  9 10  1  0  0  0  0
 10 11  2  0  0  0  0
 11 12  1  0  0  0  0
 11 13  1  0  0  0  0
 13 14  1  0  0  0  0
 13 15  2  0  0  0  0
  8 15  1  0  0  0  0
 15 16  1  0  0  0  0
 16 17  2  0  0  0  0
 16 18  1  0  0  0  0
 18 19  1  0  0  0  0
 19 20  2  0  0  0  0
 20 21  1  0  0  0  0
 21 22  1  0  0  0  0
 21 23  2  0  0  0  0
 23 24  1  0  0  0  0
 23 25  1  0  0  0  0
 25 26  2  0  0  0  0
 19 26  1  0  0  0  0
 26 27  1  0  0  0  0
M  END
> <ID>
CPD_210

$$$$
CPD_215
  Mrv1822 09091914012D          

 25 27  0  0  0  0            999 V2000
   -0.1067    0.7634    0.0000 N   0  0  0  0  0  0  0  0  0  0  0  0
    0.6078    1.1759    0.0000 C   0  0  0  0  0  0  0  0  0  0  0  0
    0.6078    2.0009    0.0000 C   0  0  0  0  0  0  0  0  0  0  0  0
    1.3222    2.4134    0.0000 C   0  0  0  0  0  0  0  0  0  0  0  0
    1.3222    3.2384    0.0000 Br  0  0  0  0  0  0  0  0  0  0  0  0
    2.0367    2.0009    0.0000 C   0  0  0  0  0  0  0  0  0  0  0  0
    2.7512    2.4134    0.0000 Br  0  0  0  0  0  0  0  0  0  0  0  0
    2.0367    1.1759    0.0000 C   0  0  0  0  0  0  0  0  0  0  0  0
    1.3222    0.7634    0.0000 C   0  0  0  0  0  0  0  0  0  0  0  0
    1.3222   -0.0616    0.0000 N   0  0  0  0  0  0  0  0  0  0  0  0
    2.0367   -0.4741    0.0000 C   0  0  0  0  0  0  0  0  0  0  0  0
    2.7512   -0.0616    0.0000 O   0  0  0  0  0  0  0  0  0  0  0  0
    2.0367   -1.2991    0.0000 C   0  0  0  0  0  0  0  0  0  0  0  0
    2.7041   -1.7840    0.0000 C   0  0  0  0  0  0  0  0  0  0  0  0
    3.4888   -1.5291    0.0000 C   0  0  0  0  0  0  0  0  0  0  0  0
    4.1019   -2.0811    0.0000 C   0  0  0  0  0  0  0  0  0  0  0  0
    4.8865   -1.8262    0.0000 C   0  0  0  0  0  0  0  0  0  0  0  0
    5.4996   -2.3782    0.0000 C   0  0  0  0  0  0  0  0  0  0  0  0
    5.3281   -3.1852    0.0000 C   0  0  0  0  0  0  0  0  0  0  0  0
    5.9411   -3.7372    0.0000 F   0  0  0  0  0  0  0  0  0  0  0  0
    4.5434   -3.4401    0.0000 C   0  0  0  0  0  0  0  0  0  0  0  0
    3.9303   -2.8881    0.0000 C   0  0  0  0  0  0  0  0  0  0  0  0
    2.4492   -2.5687    0.0000 N   0  0  0  0  0  0  0  0  0  0  0  0
    1.6242   -2.5687    0.0000 N   0  0  0  0  0  0  0  0  0  0  0  0
    1.3693   -1.7840    0.0000 C   0  0  0  0  0  0  0  0  0  0  0  0
  1  2  1  0  0  0  0
  2  3  2  0  0  0  0
  3  4  1  0  0  0  0
  4  5  1  0  0  0  0
  4  6  2  0  0  0  0
  6  7  1  0  0  0  0
  6  8  1  0  0  0  0
  8  9  2  0  0  0  0
  2  9  1  0  0  0  0
  9 10  1  0  0  0  0
 10 11  1  0  0  0  0
 11 12  2  0  0  0  0
 11 13  1  0  0  0  0
 13 14  2  0  0  0  0
 14 15  1  0  0  0  0
 15 16  1  0  0  0  0
 16 17  2  0  0  0  0
 17 18  1  0  0  0  0
 18 19  2  0  0  0  0
 19 20  1  0  0  0  0
 19 21  1  0  0  0  0
 21 22  2  0  0  0  0
 16 22  1  0  0  0  0
 14 23  1  0  0  0  0
 23 24  1  0  0  0  0
 24 25  2  0  0  0  0
 13 25  1  0  0  0  0
M  END
> <ID>
CPD_215

$$$$
CPD_220
  Mrv1822 09091914012D          

 23 25  0  0  1  0            999 V2000
    3.2384   -3.0701    0.0000 O   0  0  0  0  0  0  0  0  0  0  0  0
    3.2384   -2.2451    0.0000 C   0  0  1  0  0  0  0  0  0  0  0  0
    2.5239   -1.8326    0.0000 C   0  0  0  0  0  0  0  0  0  0  0  0
    1.8094   -2.2451    0.0000 N   0  0  0  0  0  0  0  0  0  0  0  0
    1.0950   -1.8326    0.0000 C   0  0  0  0  0  0  0  0  0  0  0  0
    1.0950   -1.0076    0.0000 O   0  0  0  0  0  0  0  0  0  0  0  0
    0.3805   -2.2451    0.0000 C   0  0  0  0  0  0  0  0  0  0  0  0
   -0.3732   -1.9095    0.0000 C   0  0  0  0  0  0  0  0  0  0  0  0
   -0.9252   -2.5226    0.0000 N   0  0  0  0  0  0  0  0  0  0  0  0
   -1.7322   -2.3511    0.0000 C   0  0  0  0  0  0  0  0  0  0  0  0
   -1.9871   -1.5665    0.0000 C   0  0  0  0  0  0  0  0  0  0  0  0
   -1.4351   -0.9534    0.0000 C   0  0  0  0  0  0  0  0  0  0  0  0
   -0.6281   -1.1249    0.0000 C   0  0  0  0  0  0  0  0  0  0  0  0
   -0.0761   -0.5118    0.0000 Cl  0  0  0  0  0  0  0  0  0  0  0  0
   -0.5127   -3.2371    0.0000 N   0  0  0  0  0  0  0  0  0  0  0  0
    0.2943   -3.0655    0.0000 C   0  0  0  0  0  0  0  0  0  0  0  0
    3.9529   -1.8326    0.0000 C   0  0  0  0  0  0  0  0  0  0  0  0
    4.6673   -2.2451    0.0000 N   0  0  0  0  0  0  0  0  0  0  0  0
    5.3818   -1.8326    0.0000 C   0  0  0  0  0  0  0  0  0  0  0  0
    6.0963   -2.2451    0.0000 C   0  0  0  0  0  0  0  0  0  0  0  0
    6.0963   -3.0701    0.0000 O   0  0  0  0  0  0  0  0  0  0  0  0
    5.3818   -3.4826    0.0000 C   0  0  0  0  0  0  0  0  0  0  0  0
    4.6673   -3.0701    0.0000 C   0  0  0  0  0  0  0  0  0  0  0  0
  2  1  1  1  0  0  0
  2  3  1  0  0  0  0
  3  4  1  0  0  0  0
  4  5  1  0  0  0  0
  5  6  2  0  0  0  0
  5  7  1  0  0  0  0
  7  8  2  0  0  0  0
  8  9  1  0  0  0  0
  9 10  1  0  0  0  0
 10 11  2  0  0  0  0
 11 12  1  0  0  0  0
 12 13  2  0  0  0  0
  8 13  1  0  0  0  0
 13 14  1  0  0  0  0
  9 15  1  0  0  0  0
 15 16  2  0  0  0  0
  7 16  1  0  0  0  0
  2 17  1  0  0  0  0
 17 18  1  0  0  0  0
 18 19  1  0  0  0  0
 19 20  1  0  0  0  0
 20 21  1  0  0  0  0
 21 22  1  0  0  0  0
 22 23  1  0  0  0  0
 18 23  1  0  0  0  0
M  END
> <ID>
CPD_220

$$$$
CPD_225
  Mrv1822 09091914012D          

 30 32  0  0  1  0            999 V2000
    4.2868   -4.9500    0.0000 O   0  0  0  0  0  0  0  0  0  0  0  0
    4.2868   -4.1250    0.0000 C   0  0  1  0  0  0  0  0  0  0  0  0
    3.5724   -3.7125    0.0000 C   0  0  0  0  0  0  0  0  0  0  0  0
    2.8579   -4.1250    0.0000 N   0  0  0  0  0  0  0  0  0  0  0  0
    2.1434   -3.7125    0.0000 C   0  0  0  0  0  0  0  0  0  0  0  0
    2.1434   -2.8875    0.0000 O   0  0  0  0  0  0  0  0  0  0  0  0
    1.4289   -4.1250    0.0000 C   0  0  0  0  0  0  0  0  0  0  0  0
    1.4289   -4.9500    0.0000 C   0  0  0  0  0  0  0  0  0  0  0  0
    0.7145   -5.3625    0.0000 C   0  0  0  0  0  0  0  0  0  0  0  0
    0.7145   -6.1875    0.0000 N   0  0  0  0  0  0  0  0  0  0  0  0
    0.0000   -6.6000    0.0000 S   0  0  0  0  0  0  0  0  0  0  0  0
    0.4125   -7.3145    0.0000 O   0  0  0  0  0  0  0  0  0  0  0  0
   -0.4125   -5.8855    0.0000 O   0  0  0  0  0  0  0  0  0  0  0  0
   -0.7145   -7.0125    0.0000 C   0  0  0  0  0  0  0  0  0  0  0  0
   -0.7145   -7.8375    0.0000 C   0  0  0  0  0  0  0  0  0  0  0  0
   -1.4289   -8.2500    0.0000 C   0  0  0  0  0  0  0  0  0  0  0  0
   -2.1434   -7.8375    0.0000 C   0  0  0  0  0  0  0  0  0  0  0  0
   -2.1434   -7.0125    0.0000 C   0  0  0  0  0  0  0  0  0  0  0  0
   -1.4289   -6.6000    0.0000 C   0  0  0  0  0  0  0  0  0  0  0  0
    0.0000   -4.9500    0.0000 C   0  0  0  0  0  0  0  0  0  0  0  0
    0.0000   -4.1250    0.0000 C   0  0  0  0  0  0  0  0  0  0  0  0
    0.7145   -3.7125    0.0000 C   0  0  0  0  0  0  0  0  0  0  0  0
    0.7145   -2.8875    0.0000 Cl  0  0  0  0  0  0  0  0  0  0  0  0
    5.0013   -3.7125    0.0000 C   0  0  0  0  0  0  0  0  0  0  0  0
    5.7158   -4.1250    0.0000 N   0  0  0  0  0  0  0  0  0  0  0  0
    6.4302   -3.7125    0.0000 C   0  0  0  0  0  0  0  0  0  0  0  0
    7.1447   -4.1250    0.0000 C   0  0  0  0  0  0  0  0  0  0  0  0
    7.1447   -4.9500    0.0000 O   0  0  0  0  0  0  0  0  0  0  0  0
    6.4302   -5.3625    0.0000 C   0  0  0  0  0  0  0  0  0  0  0  0
    5.7158   -4.9500    0.0000 C   0  0  0  0  0  0  0  0  0  0  0  0
  2  1  1  1  0  0  0
  2  3  1  0  0  0  0
  3  4  1  0  0  0  0
  4  5  1  0  0  0  0
  5  6  2  0  0  0  0
  5  7  1  0  0  0  0
  7  8  2  0  0  0  0
  8  9  1  0  0  0  0
  9 10  1  0  0  0  0
 10 11  1  0  0  0  0
 11 12  2  0  0  0  0
 11 13  2  0  0  0  0
 11 14  1  0  0  0  0
 14 15  2  0  0  0  0
 15 16  1  0  0  0  0
 16 17  2  0  0  0  0
 17 18  1  0  0  0  0
 18 19  2  0  0  0  0
 14 19  1  0  0  0  0
  9 20  2  0  0  0  0
 20 21  1  0  0  0  0
 21 22  2  0  0  0  0
  7 22  1  0  0  0  0
 22 23  1  0  0  0  0
  2 24  1  0  0  0  0
 24 25  1  0  0  0  0
 25 26  1  0  0  0  0
 26 27  1  0  0  0  0
 27 28  1  0  0  0  0
 28 29  1  0  0  0  0
 29 30  1  0  0  0  0
 25 30  1  0  0  0  0
M  END
> <ID>
CPD_225

$$$$
CPD_230
  Mrv1822 09091914012D          

 28 30  0  0  0  0            999 V2000
    2.3184   -2.6782    0.0000 N   0  0  0  0  0  0  0  0  0  0  0  0
    1.5114   -2.5066    0.0000 C   0  0  0  0  0  0  0  0  0  0  0  0
    1.2564   -1.7220    0.0000 O   0  0  0  0  0  0  0  0  0  0  0  0
    0.9594   -3.1197    0.0000 C   0  0  0  0  0  0  0  0  0  0  0  0
    0.2919   -3.6047    0.0000 C   0  0  0  0  0  0  0  0  0  0  0  0
    0.5469   -4.3893    0.0000 C   0  0  0  0  0  0  0  0  0  0  0  0
    1.3719   -4.3893    0.0000 C   0  0  0  0  0  0  0  0  0  0  0  0
    1.6268   -3.6047    0.0000 C   0  0  0  0  0  0  0  0  0  0  0  0
    0.4073   -2.5066    0.0000 C   0  0  0  0  0  0  0  0  0  0  0  0
    0.6623   -1.7220    0.0000 O   0  0  0  0  0  0  0  0  0  0  0  0
   -0.3996   -2.6782    0.0000 N   0  0  0  0  0  0  0  0  0  0  0  0
   -0.6546   -3.4628    0.0000 C   0  0  0  0  0  0  0  0  0  0  0  0
   -0.1026   -4.0759    0.0000 C   0  0  0  0  0  0  0  0  0  0  0  0
    0.3099   -4.7904    0.0000 Cl  0  0  0  0  0  0  0  0  0  0  0  0
   -0.3575   -4.8605    0.0000 C   0  0  0  0  0  0  0  0  0  0  0  0
   -1.1645   -5.0320    0.0000 C   0  0  0  0  0  0  0  0  0  0  0  0
   -1.7165   -4.4189    0.0000 C   0  0  0  0  0  0  0  0  0  0  0  0
   -1.4616   -3.6343    0.0000 C   0  0  0  0  0  0  0  0  0  0  0  0
   -2.0136   -3.0212    0.0000 Cl  0  0  0  0  0  0  0  0  0  0  0  0
   -0.9517   -2.0651    0.0000 S   0  0  0  0  0  0  0  0  0  0  0  0
   -0.3386   -1.5130    0.0000 O   0  0  0  0  0  0  0  0  0  0  0  0
   -1.5648   -2.6171    0.0000 O   0  0  0  0  0  0  0  0  0  0  0  0
   -1.5037   -1.4520    0.0000 C   0  0  0  0  0  0  0  0  0  0  0  0
   -2.3107   -1.6235    0.0000 C   0  0  0  0  0  0  0  0  0  0  0  0
   -2.8627   -1.0104    0.0000 C   0  0  0  0  0  0  0  0  0  0  0  0
   -2.6078   -0.2258    0.0000 C   0  0  0  0  0  0  0  0  0  0  0  0
   -1.8008   -0.0543    0.0000 C   0  0  0  0  0  0  0  0  0  0  0  0
   -1.2488   -0.6674    0.0000 C   0  0  0  0  0  0  0  0  0  0  0  0
  1  2  1  0  0  0  0
  2  3  2  0  0  0  0
  2  4  1  0  0  0  0
  4  5  1  0  0  0  0
  5  6  1  0  0  0  0
  6  7  1  0  0  0  0
  7  8  1  0  0  0  0
  4  8  1  0  0  0  0
  4  9  1  0  0  0  0
  9 10  2  0  0  0  0
  9 11  1  0  0  0  0
 11 12  1  0  0  0  0
 12 13  2  0  0  0  0
 13 14  1  0  0  0  0
 13 15  1  0  0  0  0
 15 16  2  0  0  0  0
 16 17  1  0  0  0  0
 17 18  2  0  0  0  0
 12 18  1  0  0  0  0
 18 19  1  0  0  0  0
 11 20  1  0  0  0  0
 20 21  2  0  0  0  0
 20 22  2  0  0  0  0
 20 23  1  0  0  0  0
 23 24  2  0  0  0  0
 24 25  1  0  0  0  0
 25 26  2  0  0  0  0
 26 27  1  0  0  0  0
 27 28  2  0  0  0  0
 23 28  1  0  0  0  0
M  END
> <ID>
CPD_230

$$$$
CPD_235
  Mrv1822 09091914012D          

 24 26  0  0  0  0            999 V2000
   -0.7145    1.2375    0.0000 Cl  0  0  0  0  0  0  0  0  0  0  0  0
   -0.0000    1.6500    0.0000 C   0  0  0  0  0  0  0  0  0  0  0  0
    0.0000    2.4750    0.0000 C   0  0  0  0  0  0  0  0  0  0  0  0
    0.7145    2.8875    0.0000 C   0  0  0  0  0  0  0  0  0  0  0  0
    1.4289    2.4750    0.0000 C   0  0  0  0  0  0  0  0  0  0  0  0
    1.4289    1.6500    0.0000 C   0  0  0  0  0  0  0  0  0  0  0  0
    2.1434    1.2375    0.0000 C   0  0  0  0  0  0  0  0  0  0  0  0
    2.8579    1.6500    0.0000 C   0  0  0  0  0  0  0  0  0  0  0  0
    3.5724    1.2375    0.0000 C   0  0  0  0  0  0  0  0  0  0  0  0
    3.5724    0.4125    0.0000 O   0  0  0  0  0  0  0  0  0  0  0  0
    4.2868    1.6500    0.0000 N   0  0  0  0  0  0  0  0  0  0  0  0
    4.2868    2.4750    0.0000 C   0  0  0  0  0  0  0  0  0  0  0  0
    3.8743    3.1895    0.0000 C   0  0  0  0  0  0  0  0  0  0  0  0
    4.6993    3.1895    0.0000 C   0  0  0  0  0  0  0  0  0  0  0  0
    5.0013    1.2375    0.0000 S   0  0  0  0  0  0  0  0  0  0  0  0
    4.5888    0.5230    0.0000 O   0  0  0  0  0  0  0  0  0  0  0  0
    5.4138    1.9520    0.0000 O   0  0  0  0  0  0  0  0  0  0  0  0
    5.7158    0.8250    0.0000 C   0  0  0  0  0  0  0  0  0  0  0  0
    6.4694    1.1606    0.0000 C   0  0  0  0  0  0  0  0  0  0  0  0
    7.0215    0.5475    0.0000 C   0  0  0  0  0  0  0  0  0  0  0  0
    6.6090   -0.1670    0.0000 C   0  0  0  0  0  0  0  0  0  0  0  0
    5.8020    0.0045    0.0000 S   0  0  0  0  0  0  0  0  0  0  0  0
    0.7145    1.2375    0.0000 C   0  0  0  0  0  0  0  0  0  0  0  0
    0.7145    0.4125    0.0000 Cl  0  0  0  0  0  0  0  0  0  0  0  0
  1  2  1  0  0  0  0
  2  3  2  0  0  0  0
  3  4  1  0  0  0  0
  4  5  2  0  0  0  0
  5  6  1  0  0  0  0
  6  7  1  0  0  0  0
  7  8  1  0  0  0  0
  8  9  1  0  0  0  0
  9 10  2  0  0  0  0
  9 11  1  0  0  0  0
 11 12  1  0  0  0  0
 12 13  1  0  0  0  0
 13 14  1  0  0  0  0
 12 14  1  0  0  0  0
 11 15  1  0  0  0  0
 15 16  2  0  0  0  0
 15 17  2  0  0  0  0
 15 18  1  0  0  0  0
 18 19  2  0  0  0  0
 19 20  1  0  0  0  0
 20 21  2  0  0  0  0
 21 22  1  0  0  0  0
 18 22  1  0  0  0  0
  6 23  2  0  0  0  0
  2 23  1  0  0  0  0
 23 24  1  0  0  0  0
M  END
> <ID>
CPD_235

$$$$
CPD_240
  Mrv1822 09091914012D          

 30 33  0  0  0  0            999 V2000
    5.8176    6.1727    0.0000 C   0  0  0  0  0  0  0  0  0  0  0  0
    5.4820    5.4190    0.0000 C   0  0  0  0  0  0  0  0  0  0  0  0
    5.8945    4.7045    0.0000 C   0  0  0  0  0  0  0  0  0  0  0  0
    6.7150    4.6183    0.0000 C   0  0  0  0  0  0  0  0  0  0  0  0
    7.1999    5.2857    0.0000 C   0  0  0  0  0  0  0  0  0  0  0  0
    8.0204    5.1995    0.0000 O   0  0  0  0  0  0  0  0  0  0  0  0
    5.3425    4.0914    0.0000 C   0  0  0  0  0  0  0  0  0  0  0  0
    5.5140    3.2844    0.0000 O   0  0  0  0  0  0  0  0  0  0  0  0
    4.5888    4.4270    0.0000 N   0  0  0  0  0  0  0  0  0  0  0  0
    4.6750    5.2475    0.0000 N   0  0  0  0  0  0  0  0  0  0  0  0
    3.8743    4.0145    0.0000 C   0  0  0  0  0  0  0  0  0  0  0  0
    3.8743    3.1895    0.0000 C   0  0  0  0  0  0  0  0  0  0  0  0
    3.1599    2.7770    0.0000 C   0  0  0  0  0  0  0  0  0  0  0  0
    2.4454    3.1895    0.0000 C   0  0  0  0  0  0  0  0  0  0  0  0
    2.4454    4.0145    0.0000 C   0  0  0  0  0  0  0  0  0  0  0  0
    3.1599    4.4270    0.0000 C   0  0  0  0  0  0  0  0  0  0  0  0
    1.7309    4.4270    0.0000 C   0  0  0  0  0  0  0  0  0  0  0  0
    1.7309    5.2520    0.0000 O   0  0  0  0  0  0  0  0  0  0  0  0
    1.0164    4.0145    0.0000 N   0  0  0  0  0  0  0  0  0  0  0  0
    1.0164    3.1895    0.0000 C   0  0  0  0  0  0  0  0  0  0  0  0
    1.4289    2.4750    0.0000 C   0  0  0  0  0  0  0  0  0  0  0  0
    0.6039    2.4750    0.0000 C   0  0  0  0  0  0  0  0  0  0  0  0
    0.3020    4.4270    0.0000 S   0  0  0  0  0  0  0  0  0  0  0  0
    0.7145    5.1414    0.0000 O   0  0  0  0  0  0  0  0  0  0  0  0
   -0.1105    3.7125    0.0000 O   0  0  0  0  0  0  0  0  0  0  0  0
   -0.4125    4.8395    0.0000 C   0  0  0  0  0  0  0  0  0  0  0  0
   -1.1662    4.5039    0.0000 C   0  0  0  0  0  0  0  0  0  0  0  0
   -1.7182    5.1170    0.0000 C   0  0  0  0  0  0  0  0  0  0  0  0
   -1.3057    5.8315    0.0000 C   0  0  0  0  0  0  0  0  0  0  0  0
   -0.4987    5.6600    0.0000 S   0  0  0  0  0  0  0  0  0  0  0  0
  1  2  1  0  0  0  0
  2  3  2  0  0  0  0
  3  4  1  0  0  0  0
  4  5  1  0  0  0  0
  5  6  1  0  0  0  0
  3  7  1  0  0  0  0
  7  8  2  0  0  0  0
  7  9  1  0  0  0  0
  9 10  1  0  0  0  0
  2 10  1  0  0  0  0
  9 11  1  0  0  0  0
 11 12  2  0  0  0  0
 12 13  1  0  0  0  0
 13 14  2  0  0  0  0
 14 15  1  0  0  0  0
 15 16  2  0  0  0  0
 11 16  1  0  0  0  0
 15 17  1  0  0  0  0
 17 18  2  0  0  0  0
 17 19  1  0  0  0  0
 19 20  1  0  0  0  0
 20 21  1  0  0  0  0
 21 22  1  0  0  0  0
 20 22  1  0  0  0  0
 19 23  1  0  0  0  0
 23 24  2  0  0  0  0
 23 25  2  0  0  0  0
 23 26  1  0  0  0  0
 26 27  2  0  0  0  0
 27 28  1  0  0  0  0
 28 29  2  0  0  0  0
 29 30  1  0  0  0  0
 26 30  1  0  0  0  0
M  END
> <ID>
CPD_240

$$$$
CPD_245
  Mrv1822 09091914012D          

 29 32  0  0  0  0            999 V2000
    3.3375   -5.0710    0.0000 O   0  0  0  0  0  0  0  0  0  0  0  0
    2.5136   -5.0279    0.0000 C   0  0  0  0  0  0  0  0  0  0  0  0
    1.6897   -4.9847    0.0000 C   0  0  0  0  0  0  0  0  0  0  0  0
    1.7329   -4.1608    0.0000 N   0  0  0  0  0  0  0  0  0  0  0  0
    2.5568   -4.2040    0.0000 C   0  0  0  0  0  0  0  0  0  0  0  0
    1.1809   -3.5477    0.0000 C   0  0  0  0  0  0  0  0  0  0  0  0
    0.3739   -3.7192    0.0000 O   0  0  0  0  0  0  0  0  0  0  0  0
    1.4358   -2.7631    0.0000 C   0  0  0  0  0  0  0  0  0  0  0  0
    0.8838   -2.1500    0.0000 C   0  0  0  0  0  0  0  0  0  0  0  0
    1.1387   -1.3654    0.0000 N   0  0  0  0  0  0  0  0  0  0  0  0
    0.6538   -0.6979    0.0000 C   0  0  0  0  0  0  0  0  0  0  0  0
    1.1387   -0.0305    0.0000 C   0  0  0  0  0  0  0  0  0  0  0  0
    0.8838    0.7541    0.0000 C   0  0  0  0  0  0  0  0  0  0  0  0
    1.4358    1.3672    0.0000 N   0  0  0  0  0  0  0  0  0  0  0  0
    1.1809    2.1518    0.0000 C   0  0  0  0  0  0  0  0  0  0  0  0
    1.7329    2.7649    0.0000 C   0  0  0  0  0  0  0  0  0  0  0  0
    2.5399    2.5934    0.0000 O   0  0  0  0  0  0  0  0  0  0  0  0
    2.7948    1.8088    0.0000 C   0  0  0  0  0  0  0  0  0  0  0  0
    2.2428    1.1957    0.0000 C   0  0  0  0  0  0  0  0  0  0  0  0
    1.9233   -0.2854    0.0000 C   0  0  0  0  0  0  0  0  0  0  0  0
    2.6378    0.1271    0.0000 C   0  0  0  0  0  0  0  0  0  0  0  0
    3.3523   -0.2854    0.0000 C   0  0  0  0  0  0  0  0  0  0  0  0
    3.3523   -1.1104    0.0000 C   0  0  0  0  0  0  0  0  0  0  0  0
    2.6378   -1.5229    0.0000 C   0  0  0  0  0  0  0  0  0  0  0  0
    1.9233   -1.1104    0.0000 C   0  0  0  0  0  0  0  0  0  0  0  0
    2.4704   -5.8517    0.0000 C   0  0  0  0  0  0  0  0  0  0  0  0
    2.4272   -6.6756    0.0000 F   0  0  0  0  0  0  0  0  0  0  0  0
    1.6466   -5.8086    0.0000 F   0  0  0  0  0  0  0  0  0  0  0  0
    3.2943   -5.8949    0.0000 F   0  0  0  0  0  0  0  0  0  0  0  0
  1  2  1  0  0  0  0
  2  3  1  0  0  0  0
  3  4  1  0  0  0  0
  4  5  1  0  0  0  0
  2  5  1  0  0  0  0
  4  6  1  0  0  0  0
  6  7  2  0  0  0  0
  6  8  1  0  0  0  0
  8  9  1  0  0  0  0
  9 10  1  0  0  0  0
 10 11  1  0  0  0  0
 11 12  2  0  0  0  0
 12 13  1  0  0  0  0
 13 14  1  0  0  0  0
 14 15  1  0  0  0  0
 15 16  1  0  0  0  0
 16 17  1  0  0  0  0
 17 18  1  0  0  0  0
 18 19  1  0  0  0  0
 14 19  1  0  0  0  0
 12 20  1  0  0  0  0
 20 21  2  0  0  0  0
 21 22  1  0  0  0  0
 22 23  2  0  0  0  0
 23 24  1  0  0  0  0
 24 25  2  0  0  0  0
 10 25  1  0  0  0  0
 20 25  1  0  0  0  0
  2 26  1  0  0  0  0
 26 27  1  0  0  0  0
 26 28  1  0  0  0  0
 26 29  1  0  0  0  0
M  END
> <ID>
CPD_245

$$$$
CPD_250
  Mrv1822 09091914012D          

 24 26  0  0  0  0            999 V2000
   -0.4470    1.0768    0.0000 O   0  0  0  0  0  0  0  0  0  0  0  0
   -1.0304    0.4935    0.0000 C   0  0  0  0  0  0  0  0  0  0  0  0
   -0.4470   -0.0899    0.0000 C   0  0  0  0  0  0  0  0  0  0  0  0
   -1.0304   -0.6733    0.0000 N   0  0  0  0  0  0  0  0  0  0  0  0
   -1.6138   -0.0899    0.0000 C   0  0  0  0  0  0  0  0  0  0  0  0
   -1.0304   -1.4983    0.0000 C   0  0  0  0  0  0  0  0  0  0  0  0
   -1.7449   -1.9108    0.0000 O   0  0  0  0  0  0  0  0  0  0  0  0
   -0.3159   -1.9108    0.0000 C   0  0  0  0  0  0  0  0  0  0  0  0
   -0.2297   -2.7312    0.0000 C   0  0  0  0  0  0  0  0  0  0  0  0
    0.5773   -2.9028    0.0000 C   0  0  0  0  0  0  0  0  0  0  0  0
    0.9128   -3.6564    0.0000 Br  0  0  0  0  0  0  0  0  0  0  0  0
    0.9898   -2.1883    0.0000 N   0  0  0  0  0  0  0  0  0  0  0  0
    0.4377   -1.5752    0.0000 N   0  0  0  0  0  0  0  0  0  0  0  0
    0.6093   -0.7682    0.0000 C   0  0  0  0  0  0  0  0  0  0  0  0
   -0.0038   -0.2162    0.0000 N   0  0  0  0  0  0  0  0  0  0  0  0
    0.1677    0.5908    0.0000 C   0  0  0  0  0  0  0  0  0  0  0  0
    0.9523    0.8457    0.0000 C   0  0  0  0  0  0  0  0  0  0  0  0
    1.5654    0.2937    0.0000 C   0  0  0  0  0  0  0  0  0  0  0  0
    1.3939   -0.5133    0.0000 C   0  0  0  0  0  0  0  0  0  0  0  0
    2.0070   -1.0653    0.0000 Cl  0  0  0  0  0  0  0  0  0  0  0  0
   -1.6138    1.0768    0.0000 C   0  0  0  0  0  0  0  0  0  0  0  0
   -2.1971    1.6602    0.0000 F   0  0  0  0  0  0  0  0  0  0  0  0
   -1.0304    1.6602    0.0000 F   0  0  0  0  0  0  0  0  0  0  0  0
   -2.1971    0.4935    0.0000 F   0  0  0  0  0  0  0  0  0  0  0  0
  1  2  1  0  0  0  0
  2  3  1  0  0  0  0
  3  4  1  0  0  0  0
  4  5  1  0  0  0  0
  2  5  1  0  0  0  0
  4  6  1  0  0  0  0
  6  7  2  0  0  0  0
  6  8  1  0  0  0  0
  8  9  2  0  0  0  0
  9 10  1  0  0  0  0
 10 11  1  0  0  0  0
 10 12  2  0  0  0  0
 12 13  1  0  0  0  0
  8 13  1  0  0  0  0
 13 14  1  0  0  0  0
 14 15  2  0  0  0  0
 15 16  1  0  0  0  0
 16 17  2  0  0  0  0
 17 18  1  0  0  0  0
 18 19  2  0  0  0  0
 14 19  1  0  0  0  0
 19 20  1  0  0  0  0
  2 21  1  0  0  0  0
 21 22  1  0  0  0  0
 21 23  1  0  0  0  0
 21 24  1  0  0  0  0
M  END
> <ID>
CPD_250

$$$$
CPD_255
  Mrv1822 09091914012D          

 22 24  0  0  0  0            999 V2000
   -1.0928    1.6073    0.0000 O   0  0  0  0  0  0  0  0  0  0  0  0
   -0.2959    1.8209    0.0000 C   0  0  0  0  0  0  0  0  0  0  0  0
    0.5009    2.0344    0.0000 C   0  0  0  0  0  0  0  0  0  0  0  0
    0.7145    1.2375    0.0000 N   0  0  0  0  0  0  0  0  0  0  0  0
   -0.0824    1.0240    0.0000 C   0  0  0  0  0  0  0  0  0  0  0  0
    1.4289    0.8250    0.0000 C   0  0  0  0  0  0  0  0  0  0  0  0
    2.1434    1.2375    0.0000 O   0  0  0  0  0  0  0  0  0  0  0  0
    1.4289    0.0000    0.0000 C   0  0  0  0  0  0  0  0  0  0  0  0
    2.1434   -0.4125    0.0000 C   0  0  0  0  0  0  0  0  0  0  0  0
    2.8579    0.0000    0.0000 O   0  0  0  0  0  0  0  0  0  0  0  0
    3.5724   -0.4125    0.0000 C   0  0  0  0  0  0  0  0  0  0  0  0
    3.5724   -1.2375    0.0000 C   0  0  0  0  0  0  0  0  0  0  0  0
    2.8579   -1.6500    0.0000 O   0  0  0  0  0  0  0  0  0  0  0  0
    2.1434   -1.2375    0.0000 C   0  0  0  0  0  0  0  0  0  0  0  0
    1.4289   -1.6500    0.0000 N   0  0  0  0  0  0  0  0  0  0  0  0
    0.7145   -1.2375    0.0000 C   0  0  0  0  0  0  0  0  0  0  0  0
    0.7145   -0.4125    0.0000 C   0  0  0  0  0  0  0  0  0  0  0  0
    0.0000   -0.0000    0.0000 Cl  0  0  0  0  0  0  0  0  0  0  0  0
   -0.5095    2.6178    0.0000 C   0  0  0  0  0  0  0  0  0  0  0  0
   -0.7230    3.4146    0.0000 F   0  0  0  0  0  0  0  0  0  0  0  0
    0.2874    2.8313    0.0000 F   0  0  0  0  0  0  0  0  0  0  0  0
   -1.3064    2.4042    0.0000 F   0  0  0  0  0  0  0  0  0  0  0  0
  1  2  1  0  0  0  0
  2  3  1  0  0  0  0
  3  4  1  0  0  0  0
  4  5  1  0  0  0  0
  2  5  1  0  0  0  0
  4  6  1  0  0  0  0
  6  7  2  0  0  0  0
  6  8  1  0  0  0  0
  8  9  2  0  0  0  0
  9 10  1  0  0  0  0
 10 11  1  0  0  0  0
 11 12  1  0  0  0  0
 12 13  1  0  0  0  0
 13 14  1  0  0  0  0
  9 14  1  0  0  0  0
 14 15  2  0  0  0  0
 15 16  1  0  0  0  0
 16 17  2  0  0  0  0
  8 17  1  0  0  0  0
 17 18  1  0  0  0  0
  2 19  1  0  0  0  0
 19 20  1  0  0  0  0
 19 21  1  0  0  0  0
 19 22  1  0  0  0  0
M  END
> <ID>
CPD_255

$$$$
CPD_260
  Mrv1822 09091914012D          

 26 29  0  0  0  0            999 V2000
    2.1787   -0.2550    0.0000 C   0  0  0  0  0  0  0  0  0  0  0  0
    1.3941   -0.0001    0.0000 N   0  0  0  0  0  0  0  0  0  0  0  0
    1.1624    0.9268    0.0000 C   0  0  0  0  0  0  0  0  0  0  0  0
    0.5174    0.4124    0.0000 C   0  0  0  0  0  0  0  0  0  0  0  0
    0.5174   -0.4126    0.0000 C   0  0  0  0  0  0  0  0  0  0  0  0
    1.1624   -0.9270    0.0000 C   0  0  0  0  0  0  0  0  0  0  0  0
    1.9667   -0.7434    0.0000 C   0  0  0  0  0  0  0  0  0  0  0  0
    2.3247   -0.0001    0.0000 N   0  0  0  0  0  0  0  0  0  0  0  0
    1.9667    0.7432    0.0000 C   0  0  0  0  0  0  0  0  0  0  0  0
    3.1497   -0.0001    0.0000 C   0  0  0  0  0  0  0  0  0  0  0  0
    3.5622    0.7144    0.0000 O   0  0  0  0  0  0  0  0  0  0  0  0
    3.5622   -0.7146    0.0000 C   0  0  0  0  0  0  0  0  0  0  0  0
    4.3826   -0.8008    0.0000 C   0  0  0  0  0  0  0  0  0  0  0  0
    4.5542   -1.6078    0.0000 N   0  0  0  0  0  0  0  0  0  0  0  0
    5.3079   -1.9433    0.0000 C   0  0  0  0  0  0  0  0  0  0  0  0
    3.8397   -2.0203    0.0000 N   0  0  0  0  0  0  0  0  0  0  0  0
    3.2266   -1.4682    0.0000 C   0  0  0  0  0  0  0  0  0  0  0  0
    4.9347   -0.1877    0.0000 C   0  0  0  0  0  0  0  0  0  0  0  0
    5.7417   -0.3592    0.0000 O   0  0  0  0  0  0  0  0  0  0  0  0
    4.6797    0.5969    0.0000 N   0  0  0  0  0  0  0  0  0  0  0  0
    5.2318    1.2100    0.0000 C   0  0  0  0  0  0  0  0  0  0  0  0
    4.9768    1.9946    0.0000 C   0  0  0  0  0  0  0  0  0  0  0  0
    5.5289    2.6077    0.0000 C   0  0  0  0  0  0  0  0  0  0  0  0
    6.3358    2.4362    0.0000 C   0  0  0  0  0  0  0  0  0  0  0  0
    6.5908    1.6516    0.0000 C   0  0  0  0  0  0  0  0  0  0  0  0
    6.0387    1.0385    0.0000 C   0  0  0  0  0  0  0  0  0  0  0  0
  1  2  1  0  0  0  0
  2  3  1  0  0  0  0
  3  4  1  0  0  0  0
  4  5  1  0  0  0  0
  5  6  1  0  0  0  0
  2  6  1  0  0  0  0
  6  7  1  0  0  0  0
  7  8  1  0  0  0  0
  8  9  1  0  0  0  0
  3  9  1  0  0  0  0
  8 10  1  0  0  0  0
 10 11  2  0  0  0  0
 10 12  1  0  0  0  0
 12 13  2  0  0  0  0
 13 14  1  0  0  0  0
 14 15  1  0  0  0  0
 14 16  1  0  0  0  0
 16 17  2  0  0  0  0
 12 17  1  0  0  0  0
 13 18  1  0  0  0  0
 18 19  2  0  0  0  0
 18 20  1  0  0  0  0
 20 21  1  0  0  0  0
 21 22  2  0  0  0  0
 22 23  1  0  0  0  0
 23 24  2  0  0  0  0
 24 25  1  0  0  0  0
 25 26  2  0  0  0  0
 21 26  1  0  0  0  0
M  END
> <ID>
CPD_260

$$$$
CPD_265
  Mrv1822 09091914012D          

 26 29  0  0  0  0            999 V2000
    0.0000   -2.4750    0.0000 C   0  0  0  0  0  0  0  0  0  0  0  0
    0.0000   -1.6500    0.0000 O   0  0  0  0  0  0  0  0  0  0  0  0
    0.7145   -1.2375    0.0000 C   0  0  0  0  0  0  0  0  0  0  0  0
    0.7145   -0.4125    0.0000 C   0  0  0  0  0  0  0  0  0  0  0  0
    0.0000    0.0000    0.0000 O   0  0  0  0  0  0  0  0  0  0  0  0
    0.0000    0.8250    0.0000 C   0  0  0  0  0  0  0  0  0  0  0  0
    1.4289    0.0000    0.0000 C   0  0  0  0  0  0  0  0  0  0  0  0
    2.1434   -0.4125    0.0000 C   0  0  0  0  0  0  0  0  0  0  0  0
    2.8579    0.0000    0.0000 C   0  0  0  0  0  0  0  0  0  0  0  0
    3.5724   -0.4125    0.0000 C   0  0  0  0  0  0  0  0  0  0  0  0
    4.2868   -0.0000    0.0000 C   0  0  0  0  0  0  0  0  0  0  0  0
    5.0013   -0.4125    0.0000 O   0  0  0  0  0  0  0  0  0  0  0  0
    4.2868    0.8250    0.0000 N   0  0  0  0  0  0  0  0  0  0  0  0
    5.0301    1.1830    0.0000 C   0  0  0  0  0  0  0  0  0  0  0  0
    5.2137    1.9873    0.0000 C   0  0  0  0  0  0  0  0  0  0  0  0
    4.6993    2.6323    0.0000 C   0  0  0  0  0  0  0  0  0  0  0  0
    3.8743    2.6323    0.0000 C   0  0  0  0  0  0  0  0  0  0  0  0
    3.3599    1.9873    0.0000 C   0  0  0  0  0  0  0  0  0  0  0  0
    3.5435    1.1830    0.0000 C   0  0  0  0  0  0  0  0  0  0  0  0
    4.2868    2.2190    0.0000 N   0  0  0  0  0  0  0  0  0  0  0  0
    4.2868    3.0440    0.0000 C   0  0  0  0  0  0  0  0  0  0  0  0
    3.5724   -1.2375    0.0000 C   0  0  0  0  0  0  0  0  0  0  0  0
    4.2868   -1.6500    0.0000 O   0  0  0  0  0  0  0  0  0  0  0  0
    2.8579   -1.6500    0.0000 N   0  0  0  0  0  0  0  0  0  0  0  0
    2.1434   -1.2375    0.0000 C   0  0  0  0  0  0  0  0  0  0  0  0
    1.4289   -1.6500    0.0000 C   0  0  0  0  0  0  0  0  0  0  0  0
  1  2  1  0  0  0  0
  2  3  1  0  0  0  0
  3  4  2  0  0  0  0
  4  5  1  0  0  0  0
  5  6  1  0  0  0  0
  4  7  1  0  0  0  0
  7  8  2  0  0  0  0
  8  9  1  0  0  0  0
  9 10  2  0  0  0  0
 10 11  1  0  0  0  0
 11 12  2  0  0  0  0
 11 13  1  0  0  0  0
 13 14  1  0  0  0  0
 14 15  1  0  0  0  0
 15 16  1  0  0  0  0
 16 17  1  0  0  0  0
 17 18  1  0  0  0  0
 18 19  1  0  0  0  0
 13 19  1  0  0  0  0
 18 20  1  0  0  0  0
 15 20  1  0  0  0  0
 20 21  1  0  0  0  0
 10 22  1  0  0  0  0
 22 23  2  0  0  0  0
 22 24  1  0  0  0  0
 24 25  1  0  0  0  0
  8 25  1  0  0  0  0
 25 26  2  0  0  0  0
  3 26  1  0  0  0  0
M  END
> <ID>
CPD_265

$$$$
CPD_270
  Mrv1822 09091914012D          

 35 36  0  0  1  0            999 V2000
    0.7145   -8.6625    0.0000 C   0  0  0  0  0  0  0  0  0  0  0  0
    0.7145   -7.8375    0.0000 C   0  0  0  0  0  0  0  0  0  0  0  0
    1.5395   -7.8375    0.0000 C   0  0  0  0  0  0  0  0  0  0  0  0
   -0.1105   -7.8375    0.0000 C   0  0  0  0  0  0  0  0  0  0  0  0
    0.7145   -7.0125    0.0000 O   0  0  0  0  0  0  0  0  0  0  0  0
    0.0000   -6.6000    0.0000 C   0  0  0  0  0  0  0  0  0  0  0  0
   -0.7145   -7.0125    0.0000 O   0  0  0  0  0  0  0  0  0  0  0  0
    0.0000   -5.7750    0.0000 N   0  0  0  0  0  0  0  0  0  0  0  0
   -0.7145   -5.3625    0.0000 C   0  0  0  0  0  0  0  0  0  0  0  0
   -0.7145   -4.5375    0.0000 C   0  0  0  0  0  0  0  0  0  0  0  0
    0.0000   -4.1250    0.0000 C   0  0  0  0  0  0  0  0  0  0  0  0
    0.7145   -4.5375    0.0000 C   0  0  0  0  0  0  0  0  0  0  0  0
    0.7145   -5.3625    0.0000 C   0  0  0  0  0  0  0  0  0  0  0  0
    0.0000   -3.3000    0.0000 N   0  0  0  0  0  0  0  0  0  0  0  0
    0.7145   -2.8875    0.0000 C   0  0  0  0  0  0  0  0  0  0  0  0
    0.7145   -2.0625    0.0000 O   0  0  0  0  0  0  0  0  0  0  0  0
    1.4289   -3.3000    0.0000 C   0  0  1  0  0  0  0  0  0  0  0  0
    1.4289   -4.1250    0.0000 N   0  0  0  0  0  0  0  0  0  0  0  0
    2.1434   -2.8875    0.0000 C   0  0  0  0  0  0  0  0  0  0  0  0
    2.8579   -3.3000    0.0000 C   0  0  0  0  0  0  0  0  0  0  0  0
    3.5724   -2.8875    0.0000 C   0  0  0  0  0  0  0  0  0  0  0  0
    4.2868   -3.3000    0.0000 C   0  0  0  0  0  0  0  0  0  0  0  0
    5.0013   -2.8875    0.0000 C   0  0  0  0  0  0  0  0  0  0  0  0
    5.7158   -3.3000    0.0000 C   0  0  0  0  0  0  0  0  0  0  0  0
    6.4302   -2.8875    0.0000 O   0  0  0  0  0  0  0  0  0  0  0  0
    5.7158   -4.1250    0.0000 O   0  0  0  0  0  0  0  0  0  0  0  0
   -0.7145   -2.8875    0.0000 S   0  0  0  0  0  0  0  0  0  0  0  0
   -0.3020   -2.1730    0.0000 O   0  0  0  0  0  0  0  0  0  0  0  0
   -1.1270   -3.6020    0.0000 O   0  0  0  0  0  0  0  0  0  0  0  0
   -1.4289   -2.4750    0.0000 C   0  0  0  0  0  0  0  0  0  0  0  0
   -2.1434   -2.8875    0.0000 C   0  0  0  0  0  0  0  0  0  0  0  0
   -2.8579   -2.4750    0.0000 C   0  0  0  0  0  0  0  0  0  0  0  0
   -2.8579   -1.6500    0.0000 C   0  0  0  0  0  0  0  0  0  0  0  0
   -2.1434   -1.2375    0.0000 C   0  0  0  0  0  0  0  0  0  0  0  0
   -1.4289   -1.6500    0.0000 C   0  0  0  0  0  0  0  0  0  0  0  0
  1  2  1  0  0  0  0
  2  3  1  0  0  0  0
  2  4  1  0  0  0  0
  2  5  1  0  0  0  0
  5  6  1  0  0  0  0
  6  7  2  0  0  0  0
  6  8  1  0  0  0  0
  8  9  1  0  0  0  0
  9 10  1  0  0  0  0
 10 11  1  0  0  0  0
 11 12  1  0  0  0  0
 12 13  1  0  0  0  0
  8 13  1  0  0  0  0
 11 14  1  0  0  0  0
 14 15  1  0  0  0  0
 15 16  2  0  0  0  0
 17 15  1  0  0  0  0
 17 18  1  6  0  0  0
 17 19  1  0  0  0  0
 19 20  1  0  0  0  0
 20 21  1  0  0  0  0
 21 22  1  0  0  0  0
 22 23  1  0  0  0  0
 23 24  1  0  0  0  0
 24 25  1  0  0  0  0
 24 26  2  0  0  0  0
 14 27  1  0  0  0  0
 27 28  2  0  0  0  0
 27 29  2  0  0  0  0
 27 30  1  0  0  0  0
 30 31  2  0  0  0  0
 31 32  1  0  0  0  0
 32 33  2  0  0  0  0
 33 34  1  0  0  0  0
 34 35  2  0  0  0  0
 30 35  1  0  0  0  0
M  END
> <ID>
CPD_270

$$$$
CPD_275
  Mrv1822 09091914012D          

 35 39  0  0  0  0            999 V2000
   -5.4755   -5.6052    0.0000 C   0  0  0  0  0  0  0  0  0  0  0  0
   -5.0630   -6.3197    0.0000 C   0  0  0  0  0  0  0  0  0  0  0  0
   -4.2425   -6.4059    0.0000 N   0  0  0  0  0  0  0  0  0  0  0  0
   -4.0709   -7.2129    0.0000 C   0  0  0  0  0  0  0  0  0  0  0  0
   -3.3565   -7.6254    0.0000 C   0  0  0  0  0  0  0  0  0  0  0  0
   -3.3565   -8.4504    0.0000 C   0  0  0  0  0  0  0  0  0  0  0  0
   -2.6420   -8.8629    0.0000 C   0  0  0  0  0  0  0  0  0  0  0  0
   -1.9275   -8.4504    0.0000 N   0  0  0  0  0  0  0  0  0  0  0  0
   -1.2131   -8.8629    0.0000 C   0  0  0  0  0  0  0  0  0  0  0  0
   -1.2131   -9.6879    0.0000 O   0  0  0  0  0  0  0  0  0  0  0  0
   -0.4986   -8.4504    0.0000 C   0  0  0  0  0  0  0  0  0  0  0  0
    0.2159   -8.8629    0.0000 C   0  0  0  0  0  0  0  0  0  0  0  0
    0.9303   -8.4504    0.0000 C   0  0  0  0  0  0  0  0  0  0  0  0
    1.6448   -8.8629    0.0000 C   0  0  0  0  0  0  0  0  0  0  0  0
    1.6448   -9.6879    0.0000 O   0  0  0  0  0  0  0  0  0  0  0  0
    2.3593   -8.4504    0.0000 N   0  0  0  0  0  0  0  0  0  0  0  0
    3.0738   -8.8629    0.0000 C   0  0  0  0  0  0  0  0  0  0  0  0
    3.7882   -8.4504    0.0000 C   0  0  0  0  0  0  0  0  0  0  0  0
    4.5027   -8.8629    0.0000 C   0  0  0  0  0  0  0  0  0  0  0  0
    4.5027   -9.6879    0.0000 C   0  0  0  0  0  0  0  0  0  0  0  0
    3.7882  -10.1004    0.0000 C   0  0  0  0  0  0  0  0  0  0  0  0
    3.0738   -9.6879    0.0000 C   0  0  0  0  0  0  0  0  0  0  0  0
    5.2172  -10.1004    0.0000 C   0  0  0  0  0  0  0  0  0  0  0  0
    5.3034  -10.9209    0.0000 N   0  0  0  0  0  0  0  0  0  0  0  0
    6.1104  -11.0924    0.0000 C   0  0  0  0  0  0  0  0  0  0  0  0
    6.5229  -10.3780    0.0000 C   0  0  0  0  0  0  0  0  0  0  0  0
    5.9708   -9.7649    0.0000 S   0  0  0  0  0  0  0  0  0  0  0  0
    7.3479  -10.3780    0.0000 C   0  0  0  0  0  0  0  0  0  0  0  0
    7.7604  -11.0924    0.0000 C   0  0  0  0  0  0  0  0  0  0  0  0
    7.3479  -11.8069    0.0000 C   0  0  0  0  0  0  0  0  0  0  0  0
    6.5229  -11.8069    0.0000 C   0  0  0  0  0  0  0  0  0  0  0  0
   -4.0709   -8.8629    0.0000 C   0  0  0  0  0  0  0  0  0  0  0  0
   -4.7854   -8.4504    0.0000 C   0  0  0  0  0  0  0  0  0  0  0  0
   -4.7854   -7.6254    0.0000 C   0  0  0  0  0  0  0  0  0  0  0  0
   -5.3985   -7.0734    0.0000 N   0  0  0  0  0  0  0  0  0  0  0  0
  1  2  1  0  0  0  0
  2  3  2  0  0  0  0
  3  4  1  0  0  0  0
  4  5  2  0  0  0  0
  5  6  1  0  0  0  0
  6  7  1  0  0  0  0
  7  8  1  0  0  0  0
  8  9  1  0  0  0  0
  9 10  2  0  0  0  0
  9 11  1  0  0  0  0
 11 12  1  0  0  0  0
 12 13  1  0  0  0  0
 13 14  1  0  0  0  0
 14 15  2  0  0  0  0
 14 16  1  0  0  0  0
 16 17  1  0  0  0  0
 17 18  2  0  0  0  0
 18 19  1  0  0  0  0
 19 20  2  0  0  0  0
 20 21  1  0  0  0  0
 21 22  2  0  0  0  0
 17 22  1  0  0  0  0
 20 23  1  0  0  0  0
 23 24  2  0  0  0  0
 24 25  1  0  0  0  0
 25 26  2  0  0  0  0
 26 27  1  0  0  0  0
 23 27  1  0  0  0  0
 26 28  1  0  0  0  0
 28 29  2  0  0  0  0
 29 30  1  0  0  0  0
 30 31  2  0  0  0  0
 25 31  1  0  0  0  0
  6 32  2  0  0  0  0
 32 33  1  0  0  0  0
 33 34  2  0  0  0  0
  4 34  1  0  0  0  0
 34 35  1  0  0  0  0
  2 35  1  0  0  0  0
M  END
> <ID>
CPD_275

$$$$
CPD_280
  Mrv1822 09091914012D          

 25 27  0  0  0  0            999 V2000
   -1.0164   -6.0474    0.0000 C   0  0  0  0  0  0  0  0  0  0  0  0
   -1.4289   -5.3329    0.0000 C   0  0  0  0  0  0  0  0  0  0  0  0
   -1.0164   -4.6184    0.0000 O   0  0  0  0  0  0  0  0  0  0  0  0
   -1.4289   -3.9039    0.0000 C   0  0  0  0  0  0  0  0  0  0  0  0
   -2.2539   -3.9039    0.0000 O   0  0  0  0  0  0  0  0  0  0  0  0
   -1.0164   -3.1895    0.0000 C   0  0  0  0  0  0  0  0  0  0  0  0
   -1.4289   -2.4750    0.0000 C   0  0  0  0  0  0  0  0  0  0  0  0
   -0.7145   -2.0625    0.0000 C   0  0  0  0  0  0  0  0  0  0  0  0
    0.0000   -2.4750    0.0000 C   0  0  0  0  0  0  0  0  0  0  0  0
    0.0000   -3.3000    0.0000 O   0  0  0  0  0  0  0  0  0  0  0  0
    0.7145   -2.0625    0.0000 N   0  0  0  0  0  0  0  0  0  0  0  0
    1.4289   -2.4750    0.0000 C   0  0  0  0  0  0  0  0  0  0  0  0
    2.1434   -2.0625    0.0000 C   0  0  0  0  0  0  0  0  0  0  0  0
    2.1434   -1.2375    0.0000 C   0  0  0  0  0  0  0  0  0  0  0  0
    2.8579   -0.8250    0.0000 C   0  0  0  0  0  0  0  0  0  0  0  0
    3.5724   -1.2375    0.0000 C   0  0  0  0  0  0  0  0  0  0  0  0
    4.3570   -0.9826    0.0000 N   0  0  0  0  0  0  0  0  0  0  0  0
    4.8419   -1.6500    0.0000 C   0  0  0  0  0  0  0  0  0  0  0  0
    5.6669   -1.6500    0.0000 C   0  0  0  0  0  0  0  0  0  0  0  0
    4.3570   -2.3174    0.0000 N   0  0  0  0  0  0  0  0  0  0  0  0
    3.5724   -2.0625    0.0000 C   0  0  0  0  0  0  0  0  0  0  0  0
    2.8579   -2.4750    0.0000 C   0  0  0  0  0  0  0  0  0  0  0  0
   -2.1434   -2.8875    0.0000 C   0  0  0  0  0  0  0  0  0  0  0  0
   -2.5559   -2.1730    0.0000 O   0  0  0  0  0  0  0  0  0  0  0  0
   -1.8414   -1.7605    0.0000 C   0  0  0  0  0  0  0  0  0  0  0  0
  1  2  1  0  0  0  0
  2  3  1  0  0  0  0
  3  4  1  0  0  0  0
  4  5  2  0  0  0  0
  4  6  1  0  0  0  0
  6  7  1  0  0  0  0
  7  8  1  0  0  0  0
  8  9  1  0  0  0  0
  9 10  2  0  0  0  0
  9 11  1  0  0  0  0
 11 12  1  0  0  0  0
 12 13  1  0  0  0  0
 13 14  2  0  0  0  0
 14 15  1  0  0  0  0
 15 16  2  0  0  0  0
 16 17  1  0  0  0  0
 17 18  1  0  0  0  0
 18 19  1  0  0  0  0
 18 20  2  0  0  0  0
 20 21  1  0  0  0  0
 16 21  1  0  0  0  0
 21 22  2  0  0  0  0
 13 22  1  0  0  0  0
  7 23  1  0  0  0  0
 23 24  1  0  0  0  0
 24 25  1  0  0  0  0
  7 25  1  0  0  0  0
M  END
> <ID>
CPD_280

$$$$
CPD_285
  Mrv1822 09091914012D          

 21 23  0  0  0  0            999 V2000
   -3.0364   -3.5676    0.0000 C   0  0  0  0  0  0  0  0  0  0  0  0
   -3.1797   -2.7552    0.0000 N   0  0  0  0  0  0  0  0  0  0  0  0
   -3.9549   -2.4730    0.0000 C   0  0  0  0  0  0  0  0  0  0  0  0
   -4.0982   -1.6605    0.0000 C   0  0  0  0  0  0  0  0  0  0  0  0
   -3.4662   -1.1302    0.0000 C   0  0  0  0  0  0  0  0  0  0  0  0
   -2.6909   -1.4124    0.0000 C   0  0  0  0  0  0  0  0  0  0  0  0
   -2.5477   -0.5999    0.0000 C   0  0  0  0  0  0  0  0  0  0  0  0
   -2.5477   -2.2249    0.0000 C   0  0  0  0  0  0  0  0  0  0  0  0
   -1.8659   -1.4124    0.0000 N   0  0  0  0  0  0  0  0  0  0  0  0
   -1.4534   -0.6979    0.0000 C   0  0  0  0  0  0  0  0  0  0  0  0
   -1.8659    0.0165    0.0000 O   0  0  0  0  0  0  0  0  0  0  0  0
   -0.6284   -0.6979    0.0000 C   0  0  0  0  0  0  0  0  0  0  0  0
   -0.1435   -1.3654    0.0000 C   0  0  0  0  0  0  0  0  0  0  0  0
   -0.3984   -2.1500    0.0000 N   0  0  0  0  0  0  0  0  0  0  0  0
    0.6411   -1.1104    0.0000 C   0  0  0  0  0  0  0  0  0  0  0  0
    0.6411   -0.2854    0.0000 C   0  0  0  0  0  0  0  0  0  0  0  0
   -0.1435   -0.0305    0.0000 C   0  0  0  0  0  0  0  0  0  0  0  0
    1.3556    0.1271    0.0000 C   0  0  0  0  0  0  0  0  0  0  0  0
    2.0701   -0.2854    0.0000 C   0  0  0  0  0  0  0  0  0  0  0  0
    2.0701   -1.1104    0.0000 C   0  0  0  0  0  0  0  0  0  0  0  0
    1.3556   -1.5229    0.0000 C   0  0  0  0  0  0  0  0  0  0  0  0
  1  2  1  0  0  0  0
  2  3  1  0  0  0  0
  3  4  1  0  0  0  0
  4  5  1  0  0  0  0
  5  6  1  0  0  0  0
  6  7  1  0  0  0  0
  6  8  1  0  0  0  0
  2  8  1  0  0  0  0
  6  9  1  0  0  0  0
  9 10  1  0  0  0  0
 10 11  2  0  0  0  0
 10 12  1  0  0  0  0
 12 13  2  0  0  0  0
 13 14  1  0  0  0  0
 13 15  1  0  0  0  0
 15 16  2  0  0  0  0
 16 17  1  0  0  0  0
 12 17  1  0  0  0  0
 16 18  1  0  0  0  0
 18 19  2  0  0  0  0
 19 20  1  0  0  0  0
 20 21  2  0  0  0  0
 15 21  1  0  0  0  0
M  END
> <ID>
CPD_285

$$$$
CPD_290
  Mrv1822 09091914012D          

 23 24  0  0  0  0            999 V2000
   -2.8016   -5.1229    0.0000 C   0  0  0  0  0  0  0  0  0  0  0  0
   -2.0872   -4.7104    0.0000 C   0  0  0  0  0  0  0  0  0  0  0  0
   -1.3727   -5.1229    0.0000 O   0  0  0  0  0  0  0  0  0  0  0  0
   -0.6582   -4.7104    0.0000 C   0  0  0  0  0  0  0  0  0  0  0  0
   -0.6582   -3.8854    0.0000 O   0  0  0  0  0  0  0  0  0  0  0  0
    0.0562   -5.1229    0.0000 C   0  0  0  0  0  0  0  0  0  0  0  0
    0.7707   -4.7104    0.0000 C   0  0  0  0  0  0  0  0  0  0  0  0
    0.7707   -3.8854    0.0000 C   0  0  0  0  0  0  0  0  0  0  0  0
    1.4852   -3.4729    0.0000 C   0  0  0  0  0  0  0  0  0  0  0  0
    2.1997   -3.8854    0.0000 C   0  0  0  0  0  0  0  0  0  0  0  0
    2.1997   -4.7104    0.0000 C   0  0  0  0  0  0  0  0  0  0  0  0
    1.4852   -5.1229    0.0000 N   0  0  0  0  0  0  0  0  0  0  0  0
    2.9141   -5.1229    0.0000 C   0  0  0  0  0  0  0  0  0  0  0  0
    3.6286   -4.7104    0.0000 O   0  0  0  0  0  0  0  0  0  0  0  0
    2.9141   -5.9479    0.0000 N   0  0  0  0  0  0  0  0  0  0  0  0
    3.6286   -6.3604    0.0000 C   0  0  0  0  0  0  0  0  0  0  0  0
    3.0983   -6.9924    0.0000 C   0  0  0  0  0  0  0  0  0  0  0  0
    3.9108   -5.5852    0.0000 C   0  0  0  0  0  0  0  0  0  0  0  0
    4.7232   -5.4419    0.0000 C   0  0  0  0  0  0  0  0  0  0  0  0
    5.2535   -6.0739    0.0000 C   0  0  0  0  0  0  0  0  0  0  0  0
    4.9714   -6.8492    0.0000 N   0  0  0  0  0  0  0  0  0  0  0  0
    5.5017   -7.4811    0.0000 C   0  0  0  0  0  0  0  0  0  0  0  0
    4.1589   -6.9924    0.0000 C   0  0  0  0  0  0  0  0  0  0  0  0
  1  2  1  0  0  0  0
  2  3  1  0  0  0  0
  3  4  1  0  0  0  0
  4  5  2  0  0  0  0
  4  6  1  0  0  0  0
  6  7  1  0  0  0  0
  7  8  2  0  0  0  0
  8  9  1  0  0  0  0
  9 10  2  0  0  0  0
 10 11  1  0  0  0  0
 11 12  2  0  0  0  0
  7 12  1  0  0  0  0
 11 13  1  0  0  0  0
 13 14  2  0  0  0  0
 13 15  1  0  0  0  0
 15 16  1  0  0  0  0
 16 17  1  0  0  0  0
 16 18  1  0  0  0  0
 18 19  1  0  0  0  0
 19 20  1  0  0  0  0
 20 21  1  0  0  0  0
 21 22  1  0  0  0  0
 21 23  1  0  0  0  0
 16 23  1  0  0  0  0
M  END
> <ID>
CPD_290

$$$$
CPD_295
  Mrv1822 09091914012D          

 32 34  0  0  0  0            999 V2000
   -1.3768   -3.3438    0.0000 C   0  0  0  0  0  0  0  0  0  0  0  0
   -1.0946   -2.5685    0.0000 N   0  0  0  0  0  0  0  0  0  0  0  0
   -1.6249   -1.9365    0.0000 C   0  0  0  0  0  0  0  0  0  0  0  0
   -1.3428   -1.1613    0.0000 C   0  0  0  0  0  0  0  0  0  0  0  0
   -0.5303   -1.0180    0.0000 C   0  0  0  0  0  0  0  0  0  0  0  0
    0.0000   -1.6500    0.0000 C   0  0  0  0  0  0  0  0  0  0  0  0
    0.5303   -1.0180    0.0000 C   0  0  0  0  0  0  0  0  0  0  0  0
   -0.2822   -2.4252    0.0000 C   0  0  0  0  0  0  0  0  0  0  0  0
    0.7145   -2.0625    0.0000 N   0  0  0  0  0  0  0  0  0  0  0  0
    1.4289   -1.6500    0.0000 C   0  0  0  0  0  0  0  0  0  0  0  0
    1.4289   -0.8250    0.0000 O   0  0  0  0  0  0  0  0  0  0  0  0
    2.1434   -2.0625    0.0000 C   0  0  0  0  0  0  0  0  0  0  0  0
    2.8579   -1.6500    0.0000 C   0  0  0  0  0  0  0  0  0  0  0  0
    3.5724   -2.0625    0.0000 N   0  0  0  0  0  0  0  0  0  0  0  0
    4.2868   -1.6500    0.0000 C   0  0  0  0  0  0  0  0  0  0  0  0
    5.0013   -2.0625    0.0000 C   0  0  0  0  0  0  0  0  0  0  0  0
    5.0013   -2.8875    0.0000 N   0  0  0  0  0  0  0  0  0  0  0  0
    4.2868   -3.3000    0.0000 C   0  0  0  0  0  0  0  0  0  0  0  0
    3.5724   -2.8875    0.0000 C   0  0  0  0  0  0  0  0  0  0  0  0
    5.7158   -3.3000    0.0000 C   0  0  0  0  0  0  0  0  0  0  0  0
    6.4302   -2.8875    0.0000 O   0  0  0  0  0  0  0  0  0  0  0  0
    5.7158   -4.1250    0.0000 O   0  0  0  0  0  0  0  0  0  0  0  0
    6.4302   -4.5375    0.0000 C   0  0  0  0  0  0  0  0  0  0  0  0
    7.1447   -4.9500    0.0000 C   0  0  0  0  0  0  0  0  0  0  0  0
    6.0177   -5.2520    0.0000 C   0  0  0  0  0  0  0  0  0  0  0  0
    6.8427   -3.8230    0.0000 C   0  0  0  0  0  0  0  0  0  0  0  0
    2.1434   -2.8875    0.0000 C   0  0  0  0  0  0  0  0  0  0  0  0
    2.8579   -3.3000    0.0000 C   0  0  0  0  0  0  0  0  0  0  0  0
    2.8579   -4.1250    0.0000 C   0  0  0  0  0  0  0  0  0  0  0  0
    2.1434   -4.5375    0.0000 C   0  0  0  0  0  0  0  0  0  0  0  0
    1.4289   -4.1250    0.0000 C   0  0  0  0  0  0  0  0  0  0  0  0
    1.4289   -3.3000    0.0000 C   0  0  0  0  0  0  0  0  0  0  0  0
  1  2  1  0  0  0  0
  2  3  1  0  0  0  0
  3  4  1  0  0  0  0
  4  5  1  0  0  0  0
  5  6  1  0  0  0  0
  6  7  1  0  0  0  0
  6  8  1  0  0  0  0
  2  8  1  0  0  0  0
  6  9  1  0  0  0  0
  9 10  1  0  0  0  0
 10 11  2  0  0  0  0
 10 12  1  0  0  0  0
 12 13  1  0  0  0  0
 13 14  1  0  0  0  0
 14 15  1  0  0  0  0
 15 16  1  0  0  0  0
 16 17  1  0  0  0  0
 17 18  1  0  0  0  0
 18 19  1  0  0  0  0
 14 19  1  0  0  0  0
 17 20  1  0  0  0  0
 20 21  2  0  0  0  0
 20 22  1  0  0  0  0
 22 23  1  0  0  0  0
 23 24  1  0  0  0  0
 23 25  1  0  0  0  0
 23 26  1  0  0  0  0
 12 27  1  0  0  0  0
 27 28  2  0  0  0  0
 28 29  1  0  0  0  0
 29 30  2  0  0  0  0
 30 31  1  0  0  0  0
 31 32  2  0  0  0  0
 27 32  1  0  0  0  0
M  END
> <ID>
CPD_295

$$$$
CPD_300
  Mrv1822 09091914012D          

 23 25  0  0  0  0            999 V2000
    1.4056    4.1584    0.0000 C   0  0  0  0  0  0  0  0  0  0  0  0
    2.2181    4.3016    0.0000 N   0  0  0  0  0  0  0  0  0  0  0  0
    2.5002    5.0769    0.0000 C   0  0  0  0  0  0  0  0  0  0  0  0
    3.3127    5.2201    0.0000 C   0  0  0  0  0  0  0  0  0  0  0  0
    3.8430    4.5881    0.0000 C   0  0  0  0  0  0  0  0  0  0  0  0
    3.5608    3.8129    0.0000 C   0  0  0  0  0  0  0  0  0  0  0  0
    4.3733    3.6696    0.0000 C   0  0  0  0  0  0  0  0  0  0  0  0
    2.7484    3.6696    0.0000 C   0  0  0  0  0  0  0  0  0  0  0  0
    3.5608    2.9879    0.0000 N   0  0  0  0  0  0  0  0  0  0  0  0
    4.2753    2.5754    0.0000 C   0  0  0  0  0  0  0  0  0  0  0  0
    4.9898    2.9879    0.0000 O   0  0  0  0  0  0  0  0  0  0  0  0
    4.2753    1.7504    0.0000 C   0  0  0  0  0  0  0  0  0  0  0  0
    4.9427    1.2655    0.0000 C   0  0  0  0  0  0  0  0  0  0  0  0
    4.6878    0.4808    0.0000 N   0  0  0  0  0  0  0  0  0  0  0  0
    5.1727   -0.1866    0.0000 C   0  0  0  0  0  0  0  0  0  0  0  0
    4.8372   -0.9403    0.0000 C   0  0  0  0  0  0  0  0  0  0  0  0
    5.2497   -1.6547    0.0000 C   0  0  0  0  0  0  0  0  0  0  0  0
    4.6976   -2.2678    0.0000 S   0  0  0  0  0  0  0  0  0  0  0  0
    3.9440   -1.9323    0.0000 C   0  0  0  0  0  0  0  0  0  0  0  0
    4.0302   -1.1118    0.0000 C   0  0  0  0  0  0  0  0  0  0  0  0
    3.8628    0.4808    0.0000 C   0  0  0  0  0  0  0  0  0  0  0  0
    3.3779   -0.1866    0.0000 O   0  0  0  0  0  0  0  0  0  0  0  0
    3.6079    1.2655    0.0000 C   0  0  0  0  0  0  0  0  0  0  0  0
  1  2  1  0  0  0  0
  2  3  1  0  0  0  0
  3  4  1  0  0  0  0
  4  5  1  0  0  0  0
  5  6  1  0  0  0  0
  6  7  1  0  0  0  0
  6  8  1  0  0  0  0
  2  8  1  0  0  0  0
  6  9  1  0  0  0  0
  9 10  1  0  0  0  0
 10 11  2  0  0  0  0
 10 12  1  0  0  0  0
 12 13  1  0  0  0  0
 13 14  1  0  0  0  0
 14 15  1  0  0  0  0
 15 16  1  0  0  0  0
 16 17  2  0  0  0  0
 17 18  1  0  0  0  0
 18 19  1  0  0  0  0
 19 20  2  0  0  0  0
 16 20  1  0  0  0  0
 14 21  1  0  0  0  0
 21 22  2  0  0  0  0
 21 23  1  0  0  0  0
 12 23  1  0  0  0  0
M  END
> <ID>
CPD_300

$$$$
CPD_305
  Mrv1822 09091914012D          

 25 27  0  0  1  0            999 V2000
   -0.8330    1.1089    0.0000 C   0  0  0  0  0  0  0  0  0  0  0  0
   -0.0205    1.2521    0.0000 N   0  0  0  0  0  0  0  0  0  0  0  0
    0.2616    2.0274    0.0000 C   0  0  0  0  0  0  0  0  0  0  0  0
    1.0741    2.1706    0.0000 C   0  0  0  0  0  0  0  0  0  0  0  0
    1.6044    1.5386    0.0000 C   0  0  0  0  0  0  0  0  0  0  0  0
    1.3222    0.7634    0.0000 C   0  0  0  0  0  0  0  0  0  0  0  0
    2.1347    0.6201    0.0000 C   0  0  0  0  0  0  0  0  0  0  0  0
    0.5098    0.6201    0.0000 C   0  0  0  0  0  0  0  0  0  0  0  0
    1.3222   -0.0616    0.0000 N   0  0  0  0  0  0  0  0  0  0  0  0
    2.0367   -0.4741    0.0000 C   0  0  0  0  0  0  0  0  0  0  0  0
    2.7512   -0.0616    0.0000 O   0  0  0  0  0  0  0  0  0  0  0  0
    2.0367   -1.2991    0.0000 C   0  0  2  0  0  0  0  0  0  0  0  0
    2.7041   -1.7840    0.0000 C   0  0  0  0  0  0  0  0  0  0  0  0
    2.4492   -2.5687    0.0000 C   0  0  1  0  0  0  0  0  0  0  0  0
    1.6242   -2.5687    0.0000 C   0  0  0  0  0  0  0  0  0  0  0  0
    1.3693   -1.7840    0.0000 N   0  0  0  0  0  0  0  0  0  0  0  0
    2.9341   -3.2361    0.0000 O   0  0  0  0  0  0  0  0  0  0  0  0
    2.5986   -3.9898    0.0000 C   0  0  0  0  0  0  0  0  0  0  0  0
    3.0835   -4.6572    0.0000 C   0  0  0  0  0  0  0  0  0  0  0  0
    2.7479   -5.4109    0.0000 C   0  0  0  0  0  0  0  0  0  0  0  0
    3.2329   -6.0783    0.0000 F   0  0  0  0  0  0  0  0  0  0  0  0
    1.9275   -5.4971    0.0000 C   0  0  0  0  0  0  0  0  0  0  0  0
    1.4425   -4.8297    0.0000 C   0  0  0  0  0  0  0  0  0  0  0  0
    1.7781   -4.0760    0.0000 C   0  0  0  0  0  0  0  0  0  0  0  0
    1.2932   -3.4086    0.0000 F   0  0  0  0  0  0  0  0  0  0  0  0
  1  2  1  0  0  0  0
  2  3  1  0  0  0  0
  3  4  1  0  0  0  0
  4  5  1  0  0  0  0
  5  6  1  0  0  0  0
  6  7  1  0  0  0  0
  6  8  1  0  0  0  0
  2  8  1  0  0  0  0
  6  9  1  0  0  0  0
  9 10  1  0  0  0  0
 10 11  2  0  0  0  0
 12 10  1  6  0  0  0
 12 13  1  0  0  0  0
 14 13  1  0  0  0  0
 14 15  1  0  0  0  0
 15 16  1  0  0  0  0
 12 16  1  0  0  0  0
 14 17  1  6  0  0  0
 17 18  1  0  0  0  0
 18 19  2  0  0  0  0
 19 20  1  0  0  0  0
 20 21  1  0  0  0  0
 20 22  2  0  0  0  0
 22 23  1  0  0  0  0
 23 24  2  0  0  0  0
 18 24  1  0  0  0  0
 24 25  1  0  0  0  0
M  END
> <ID>
CPD_305

$$$$
CPD_310
  Mrv1822 09091914012D          

 23 25  0  0  0  0            999 V2000
   -4.2868   -4.1250    0.0000 C   0  0  0  0  0  0  0  0  0  0  0  0
   -3.5724   -3.7125    0.0000 C   0  0  0  0  0  0  0  0  0  0  0  0
   -2.8579   -4.1250    0.0000 O   0  0  0  0  0  0  0  0  0  0  0  0
   -3.5724   -2.8875    0.0000 N   0  0  0  0  0  0  0  0  0  0  0  0
   -2.8579   -2.4750    0.0000 C   0  0  0  0  0  0  0  0  0  0  0  0
   -2.8579   -1.6500    0.0000 C   0  0  0  0  0  0  0  0  0  0  0  0
   -2.1434   -1.2375    0.0000 C   0  0  0  0  0  0  0  0  0  0  0  0
   -1.4289   -1.6500    0.0000 C   0  0  0  0  0  0  0  0  0  0  0  0
   -1.4289   -2.4750    0.0000 C   0  0  0  0  0  0  0  0  0  0  0  0
   -2.1434   -2.8875    0.0000 N   0  0  0  0  0  0  0  0  0  0  0  0
   -0.7145   -1.2375    0.0000 C   0  0  0  0  0  0  0  0  0  0  0  0
   -0.7145   -0.4125    0.0000 O   0  0  0  0  0  0  0  0  0  0  0  0
    0.0000   -1.6500    0.0000 N   0  0  0  0  0  0  0  0  0  0  0  0
    0.7145   -1.2375    0.0000 C   0  0  0  0  0  0  0  0  0  0  0  0
    0.7145   -0.4125    0.0000 C   0  0  0  0  0  0  0  0  0  0  0  0
    0.0000    0.0000    0.0000 C   0  0  0  0  0  0  0  0  0  0  0  0
    0.0000    0.8250    0.0000 C   0  0  0  0  0  0  0  0  0  0  0  0
    0.7145    1.2375    0.0000 C   0  0  0  0  0  0  0  0  0  0  0  0
    1.4289    0.8250    0.0000 C   0  0  0  0  0  0  0  0  0  0  0  0
    1.4289   -0.0000    0.0000 C   0  0  0  0  0  0  0  0  0  0  0  0
    0.0000   -2.4750    0.0000 C   0  0  0  0  0  0  0  0  0  0  0  0
    0.4125   -3.1895    0.0000 C   0  0  0  0  0  0  0  0  0  0  0  0
   -0.4125   -3.1895    0.0000 C   0  0  0  0  0  0  0  0  0  0  0  0
  1  2  1  0  0  0  0
  2  3  2  0  0  0  0
  2  4  1  0  0  0  0
  4  5  1  0  0  0  0
  5  6  2  0  0  0  0
  6  7  1  0  0  0  0
  7  8  2  0  0  0  0
  8  9  1  0  0  0  0
  9 10  2  0  0  0  0
  5 10  1  0  0  0  0
  8 11  1  0  0  0  0
 11 12  2  0  0  0  0
 11 13  1  0  0  0  0
 13 14  1  0  0  0  0
 14 15  1  0  0  0  0
 15 16  2  0  0  0  0
 16 17  1  0  0  0  0
 17 18  2  0  0  0  0
 18 19  1  0  0  0  0
 19 20  2  0  0  0  0
 15 20  1  0  0  0  0
 13 21  1  0  0  0  0
 21 22  1  0  0  0  0
 22 23  1  0  0  0  0
 21 23  1  0  0  0  0
M  END
> <ID>
CPD_310

$$$$
CPD_315
  Mrv1822 09091914012D          

 23 25  0  0  0  0            999 V2000
   -2.8579   -1.6500    0.0000 C   0  0  0  0  0  0  0  0  0  0  0  0
   -2.1434   -1.2375    0.0000 C   0  0  0  0  0  0  0  0  0  0  0  0
   -2.1434   -0.4125    0.0000 C   0  0  0  0  0  0  0  0  0  0  0  0
   -1.4289   -1.6500    0.0000 N   0  0  0  0  0  0  0  0  0  0  0  0
   -0.7145   -1.2375    0.0000 C   0  0  0  0  0  0  0  0  0  0  0  0
    0.0000   -1.6500    0.0000 C   0  0  0  0  0  0  0  0  0  0  0  0
    0.0000   -2.4750    0.0000 C   0  0  0  0  0  0  0  0  0  0  0  0
    0.7145   -2.8875    0.0000 C   0  0  0  0  0  0  0  0  0  0  0  0
    1.4289   -2.4750    0.0000 C   0  0  0  0  0  0  0  0  0  0  0  0
    1.4289   -1.6500    0.0000 O   0  0  0  0  0  0  0  0  0  0  0  0
    2.1434   -2.8875    0.0000 N   0  0  0  0  0  0  0  0  0  0  0  0
    2.8579   -2.4750    0.0000 C   0  0  0  0  0  0  0  0  0  0  0  0
    3.5724   -2.8875    0.0000 C   0  0  0  0  0  0  0  0  0  0  0  0
    4.2868   -2.4750    0.0000 C   0  0  0  0  0  0  0  0  0  0  0  0
    5.0013   -2.8875    0.0000 C   0  0  0  0  0  0  0  0  0  0  0  0
    5.0013   -3.7125    0.0000 C   0  0  0  0  0  0  0  0  0  0  0  0
    4.2868   -4.1250    0.0000 C   0  0  0  0  0  0  0  0  0  0  0  0
    3.5724   -3.7125    0.0000 C   0  0  0  0  0  0  0  0  0  0  0  0
    2.1434   -3.7125    0.0000 C   0  0  0  0  0  0  0  0  0  0  0  0
    2.5559   -4.4270    0.0000 C   0  0  0  0  0  0  0  0  0  0  0  0
    1.7309   -4.4270    0.0000 C   0  0  0  0  0  0  0  0  0  0  0  0
   -0.7145   -2.8875    0.0000 C   0  0  0  0  0  0  0  0  0  0  0  0
   -1.4289   -2.4750    0.0000 C   0  0  0  0  0  0  0  0  0  0  0  0
  1  2  1  0  0  0  0
  2  3  1  0  0  0  0
  2  4  1  0  0  0  0
  4  5  1  0  0  0  0
  5  6  1  0  0  0  0
  6  7  1  0  0  0  0
  7  8  1  0  0  0  0
  8  9  1  0  0  0  0
  9 10  2  0  0  0  0
  9 11  1  0  0  0  0
 11 12  1  0  0  0  0
 12 13  1  0  0  0  0
 13 14  2  0  0  0  0
 14 15  1  0  0  0  0
 15 16  2  0  0  0  0
 16 17  1  0  0  0  0
 17 18  2  0  0  0  0
 13 18  1  0  0  0  0
 11 19  1  0  0  0  0
 19 20  1  0  0  0  0
 20 21  1  0  0  0  0
 19 21  1  0  0  0  0
  7 22  1  0  0  0  0
 22 23  1  0  0  0  0
  4 23  1  0  0  0  0
M  END
> <ID>
CPD_315

$$$$
CPD_320
  Mrv1822 09091914012D          

 22 24  0  0  0  0            999 V2000
   -2.1434   -1.2375    0.0000 F   0  0  0  0  0  0  0  0  0  0  0  0
   -2.1434   -2.0625    0.0000 C   0  0  0  0  0  0  0  0  0  0  0  0
   -1.4289   -2.4750    0.0000 C   0  0  0  0  0  0  0  0  0  0  0  0
   -0.7145   -2.0625    0.0000 C   0  0  0  0  0  0  0  0  0  0  0  0
    0.0000   -2.4750    0.0000 C   0  0  0  0  0  0  0  0  0  0  0  0
    0.0000   -3.3000    0.0000 O   0  0  0  0  0  0  0  0  0  0  0  0
    0.7145   -2.0625    0.0000 N   0  0  0  0  0  0  0  0  0  0  0  0
    1.4289   -2.4750    0.0000 C   0  0  0  0  0  0  0  0  0  0  0  0
    2.1434   -2.0625    0.0000 C   0  0  0  0  0  0  0  0  0  0  0  0
    2.1434   -1.2375    0.0000 C   0  0  0  0  0  0  0  0  0  0  0  0
    2.8579   -0.8250    0.0000 C   0  0  0  0  0  0  0  0  0  0  0  0
    3.5724   -1.2375    0.0000 C   0  0  0  0  0  0  0  0  0  0  0  0
    3.5724   -2.0625    0.0000 C   0  0  0  0  0  0  0  0  0  0  0  0
    2.8579   -2.4750    0.0000 C   0  0  0  0  0  0  0  0  0  0  0  0
    0.7145   -1.2375    0.0000 C   0  0  0  0  0  0  0  0  0  0  0  0
    0.3020   -0.5230    0.0000 C   0  0  0  0  0  0  0  0  0  0  0  0
    1.1270   -0.5230    0.0000 C   0  0  0  0  0  0  0  0  0  0  0  0
   -1.4289   -3.3000    0.0000 C   0  0  0  0  0  0  0  0  0  0  0  0
   -0.7145   -3.7125    0.0000 Cl  0  0  0  0  0  0  0  0  0  0  0  0
   -2.1434   -3.7125    0.0000 C   0  0  0  0  0  0  0  0  0  0  0  0
   -2.8579   -3.3000    0.0000 C   0  0  0  0  0  0  0  0  0  0  0  0
   -2.8579   -2.4750    0.0000 C   0  0  0  0  0  0  0  0  0  0  0  0
  1  2  1  0  0  0  0
  2  3  2  0  0  0  0
  3  4  1  0  0  0  0
  4  5  1  0  0  0  0
  5  6  2  0  0  0  0
  5  7  1  0  0  0  0
  7  8  1  0  0  0  0
  8  9  1  0  0  0  0
  9 10  2  0  0  0  0
 10 11  1  0  0  0  0
 11 12  2  0  0  0  0
 12 13  1  0  0  0  0
 13 14  2  0  0  0  0
  9 14  1  0  0  0  0
  7 15  1  0  0  0  0
 15 16  1  0  0  0  0
 16 17  1  0  0  0  0
 15 17  1  0  0  0  0
  3 18  1  0  0  0  0
 18 19  1  0  0  0  0
 18 20  2  0  0  0  0
 20 21  1  0  0  0  0
 21 22  2  0  0  0  0
  2 22  1  0  0  0  0
M  END
> <ID>
CPD_320

$$$$
CPD_325
  Mrv1822 09091914012D          

 25 27  0  0  0  0            999 V2000
   -0.3579   -0.7844    0.0000 C   0  0  0  0  0  0  0  0  0  0  0  0
   -0.3579   -1.6094    0.0000 N   0  0  0  0  0  0  0  0  0  0  0  0
   -1.0724   -2.0219    0.0000 C   0  0  0  0  0  0  0  0  0  0  0  0
   -1.7869   -1.6094    0.0000 C   0  0  0  0  0  0  0  0  0  0  0  0
   -2.5014   -2.0219    0.0000 S   0  0  0  0  0  0  0  0  0  0  0  0
   -3.2158   -1.6094    0.0000 C   0  0  0  0  0  0  0  0  0  0  0  0
   -3.9303   -2.0219    0.0000 C   0  0  0  0  0  0  0  0  0  0  0  0
   -4.6448   -1.6094    0.0000 C   0  0  0  0  0  0  0  0  0  0  0  0
   -4.6448   -0.7844    0.0000 C   0  0  0  0  0  0  0  0  0  0  0  0
   -5.3592   -0.3719    0.0000 C   0  0  0  0  0  0  0  0  0  0  0  0
   -3.9303   -0.3719    0.0000 C   0  0  0  0  0  0  0  0  0  0  0  0
   -3.2158   -0.7844    0.0000 C   0  0  0  0  0  0  0  0  0  0  0  0
   -1.0724   -2.8469    0.0000 C   0  0  0  0  0  0  0  0  0  0  0  0
   -0.6599   -3.5614    0.0000 C   0  0  0  0  0  0  0  0  0  0  0  0
   -1.4849   -3.5614    0.0000 C   0  0  0  0  0  0  0  0  0  0  0  0
    0.3565   -2.0219    0.0000 C   0  0  0  0  0  0  0  0  0  0  0  0
    0.3565   -2.8469    0.0000 O   0  0  0  0  0  0  0  0  0  0  0  0
    1.0710   -1.6094    0.0000 C   0  0  0  0  0  0  0  0  0  0  0  0
    1.3532   -2.3847    0.0000 C   0  0  0  0  0  0  0  0  0  0  0  0
    2.1656   -2.5279    0.0000 N   0  0  0  0  0  0  0  0  0  0  0  0
    0.5407   -0.9775    0.0000 C   0  0  0  0  0  0  0  0  0  0  0  0
    0.8229   -0.2022    0.0000 C   0  0  0  0  0  0  0  0  0  0  0  0
    1.6353   -0.0589    0.0000 C   0  0  0  0  0  0  0  0  0  0  0  0
    2.1656   -0.6909    0.0000 C   0  0  0  0  0  0  0  0  0  0  0  0
    1.8835   -1.4662    0.0000 C   0  0  0  0  0  0  0  0  0  0  0  0
  1  2  1  0  0  0  0
  2  3  1  0  0  0  0
  3  4  1  0  0  0  0
  4  5  1  0  0  0  0
  5  6  1  0  0  0  0
  6  7  2  0  0  0  0
  7  8  1  0  0  0  0
  8  9  2  0  0  0  0
  9 10  1  0  0  0  0
  9 11  1  0  0  0  0
 11 12  2  0  0  0  0
  6 12  1  0  0  0  0
  3 13  1  0  0  0  0
 13 14  1  0  0  0  0
 14 15  1  0  0  0  0
 13 15  1  0  0  0  0
  2 16  1  0  0  0  0
 16 17  2  0  0  0  0
 16 18  1  0  0  0  0
 18 19  1  0  0  0  0
 19 20  1  0  0  0  0
 18 21  1  0  0  0  0
 21 22  1  0  0  0  0
 22 23  1  0  0  0  0
 23 24  1  0  0  0  0
 24 25  1  0  0  0  0
 18 25  1  0  0  0  0
M  END
> <ID>
CPD_325

$$$$
CPD_330
  Mrv1822 09091914012D          

 25 27  0  0  0  0            999 V2000
    2.8579   -2.4750    0.0000 C   0  0  0  0  0  0  0  0  0  0  0  0
    2.8579   -1.6500    0.0000 N   0  0  0  0  0  0  0  0  0  0  0  0
    2.1434   -1.2375    0.0000 C   0  0  0  0  0  0  0  0  0  0  0  0
    1.4289   -1.6500    0.0000 C   0  0  0  0  0  0  0  0  0  0  0  0
    0.7145   -1.2375    0.0000 S   0  0  0  0  0  0  0  0  0  0  0  0
    0.0000   -1.6500    0.0000 C   0  0  0  0  0  0  0  0  0  0  0  0
    0.0000   -2.4750    0.0000 C   0  0  0  0  0  0  0  0  0  0  0  0
   -0.7145   -2.8875    0.0000 C   0  0  0  0  0  0  0  0  0  0  0  0
   -1.4289   -2.4750    0.0000 C   0  0  0  0  0  0  0  0  0  0  0  0
   -2.1434   -2.8875    0.0000 C   0  0  0  0  0  0  0  0  0  0  0  0
   -1.4289   -1.6500    0.0000 C   0  0  0  0  0  0  0  0  0  0  0  0
   -0.7145   -1.2375    0.0000 C   0  0  0  0  0  0  0  0  0  0  0  0
    2.1434   -0.4125    0.0000 C   0  0  0  0  0  0  0  0  0  0  0  0
    1.7309    0.3020    0.0000 C   0  0  0  0  0  0  0  0  0  0  0  0
    2.5559    0.3020    0.0000 C   0  0  0  0  0  0  0  0  0  0  0  0
    3.5724   -1.2375    0.0000 C   0  0  0  0  0  0  0  0  0  0  0  0
    3.5724   -0.4125    0.0000 O   0  0  0  0  0  0  0  0  0  0  0  0
    4.2868   -1.6500    0.0000 C   0  0  0  0  0  0  0  0  0  0  0  0
    5.0405   -1.3144    0.0000 N   0  0  0  0  0  0  0  0  0  0  0  0
    5.5925   -1.9275    0.0000 N   0  0  0  0  0  0  0  0  0  0  0  0
    6.4130   -1.8413    0.0000 C   0  0  0  0  0  0  0  0  0  0  0  0
    6.7486   -1.0876    0.0000 C   0  0  0  0  0  0  0  0  0  0  0  0
    7.0841   -0.3340    0.0000 N   0  0  0  0  0  0  0  0  0  0  0  0
    5.1800   -2.6420    0.0000 C   0  0  0  0  0  0  0  0  0  0  0  0
    4.3731   -2.4705    0.0000 C   0  0  0  0  0  0  0  0  0  0  0  0
  1  2  1  0  0  0  0
  2  3  1  0  0  0  0
  3  4  1  0  0  0  0
  4  5  1  0  0  0  0
  5  6  1  0  0  0  0
  6  7  2  0  0  0  0
  7  8  1  0  0  0  0
  8  9  2  0  0  0  0
  9 10  1  0  0  0  0
  9 11  1  0  0  0  0
 11 12  2  0  0  0  0
  6 12  1  0  0  0  0
  3 13  1  0  0  0  0
 13 14  1  0  0  0  0
 14 15  1  0  0  0  0
 13 15  1  0  0  0  0
  2 16  1  0  0  0  0
 16 17  2  0  0  0  0
 16 18  1  0  0  0  0
 18 19  2  0  0  0  0
 19 20  1  0  0  0  0
 20 21  1  0  0  0  0
 21 22  1  0  0  0  0
 22 23  3  0  0  0  0
 20 24  1  0  0  0  0
 24 25  2  0  0  0  0
 18 25  1  0  0  0  0
M  END
> <ID>
CPD_330

$$$$
CPD_335
  Mrv1822 09091914012D          

 28 29  0  0  0  0            999 V2000
    1.4289   -2.4750    0.0000 C   0  0  0  0  0  0  0  0  0  0  0  0
    1.4289   -1.6500    0.0000 N   0  0  0  0  0  0  0  0  0  0  0  0
    0.7145   -1.2375    0.0000 C   0  0  0  0  0  0  0  0  0  0  0  0
    0.0000   -1.6500    0.0000 C   0  0  0  0  0  0  0  0  0  0  0  0
   -0.7145   -1.2375    0.0000 S   0  0  0  0  0  0  0  0  0  0  0  0
   -1.4289   -1.6500    0.0000 C   0  0  0  0  0  0  0  0  0  0  0  0
   -1.4289   -2.4750    0.0000 C   0  0  0  0  0  0  0  0  0  0  0  0
   -2.1434   -2.8875    0.0000 C   0  0  0  0  0  0  0  0  0  0  0  0
   -2.8579   -2.4750    0.0000 C   0  0  0  0  0  0  0  0  0  0  0  0
   -3.5724   -2.8875    0.0000 C   0  0  0  0  0  0  0  0  0  0  0  0
   -2.8579   -1.6500    0.0000 C   0  0  0  0  0  0  0  0  0  0  0  0
   -2.1434   -1.2375    0.0000 C   0  0  0  0  0  0  0  0  0  0  0  0
    0.7145   -0.4125    0.0000 C   0  0  0  0  0  0  0  0  0  0  0  0
    0.3020    0.3020    0.0000 C   0  0  0  0  0  0  0  0  0  0  0  0
    1.1270    0.3020    0.0000 C   0  0  0  0  0  0  0  0  0  0  0  0
    2.1434   -1.2375    0.0000 C   0  0  0  0  0  0  0  0  0  0  0  0
    2.1434   -0.4125    0.0000 O   0  0  0  0  0  0  0  0  0  0  0  0
    2.8579   -1.6500    0.0000 C   0  0  0  0  0  0  0  0  0  0  0  0
    3.5724   -1.2375    0.0000 C   0  0  0  0  0  0  0  0  0  0  0  0
    4.2868   -1.6500    0.0000 O   0  0  0  0  0  0  0  0  0  0  0  0
    5.0013   -1.2375    0.0000 C   0  0  0  0  0  0  0  0  0  0  0  0
    5.7158   -1.6500    0.0000 C   0  0  0  0  0  0  0  0  0  0  0  0
    6.4302   -1.2375    0.0000 O   0  0  0  0  0  0  0  0  0  0  0  0
    7.1447   -1.6500    0.0000 C   0  0  0  0  0  0  0  0  0  0  0  0
    7.8592   -1.2375    0.0000 C   0  0  0  0  0  0  0  0  0  0  0  0
    8.5737   -1.6500    0.0000 C   0  0  0  0  0  0  0  0  0  0  0  0
    9.2881   -1.2375    0.0000 O   0  0  0  0  0  0  0  0  0  0  0  0
    8.5737   -2.4750    0.0000 O   0  0  0  0  0  0  0  0  0  0  0  0
  1  2  1  0  0  0  0
  2  3  1  0  0  0  0
  3  4  1  0  0  0  0
  4  5  1  0  0  0  0
  5  6  1  0  0  0  0
  6  7  2  0  0  0  0
  7  8  1  0  0  0  0
  8  9  2  0  0  0  0
  9 10  1  0  0  0  0
  9 11  1  0  0  0  0
 11 12  2  0  0  0  0
  6 12  1  0  0  0  0
  3 13  1  0  0  0  0
 13 14  1  0  0  0  0
 14 15  1  0  0  0  0
 13 15  1  0  0  0  0
  2 16  1  0  0  0  0
 16 17  2  0  0  0  0
 16 18  1  0  0  0  0
 18 19  1  0  0  0  0
 19 20  1  0  0  0  0
 20 21  1  0  0  0  0
 21 22  1  0  0  0  0
 22 23  1  0  0  0  0
 23 24  1  0  0  0  0
 24 25  1  0  0  0  0
 25 26  1  0  0  0  0
 26 27  1  0  0  0  0
 26 28  2  0  0  0  0
M  END
> <ID>
CPD_335

$$$$
CPD_340
  Mrv1822 09091914012D          

 32 34  0  0  0  0            999 V2000
    4.2868   -0.0000    0.0000 C   0  0  0  0  0  0  0  0  0  0  0  0
    4.2868   -0.8250    0.0000 C   0  0  0  0  0  0  0  0  0  0  0  0
    5.0013   -1.2375    0.0000 O   0  0  0  0  0  0  0  0  0  0  0  0
    5.0013   -2.0625    0.0000 C   0  0  0  0  0  0  0  0  0  0  0  0
    5.7158   -2.4750    0.0000 C   0  0  0  0  0  0  0  0  0  0  0  0
    5.7158   -3.3000    0.0000 C   0  0  0  0  0  0  0  0  0  0  0  0
    5.0013   -3.7125    0.0000 C   0  0  0  0  0  0  0  0  0  0  0  0
    5.0013   -4.5375    0.0000 N   0  0  0  0  0  0  0  0  0  0  0  0
    5.7158   -4.9500    0.0000 S   0  0  0  0  0  0  0  0  0  0  0  0
    5.3033   -5.6645    0.0000 O   0  0  0  0  0  0  0  0  0  0  0  0
    6.1283   -4.2355    0.0000 O   0  0  0  0  0  0  0  0  0  0  0  0
    6.4302   -5.3625    0.0000 C   0  0  0  0  0  0  0  0  0  0  0  0
    6.4302   -6.1875    0.0000 C   0  0  0  0  0  0  0  0  0  0  0  0
    5.7158   -6.6000    0.0000 N   0  0  0  0  0  0  0  0  0  0  0  0
    5.7158   -7.4250    0.0000 C   0  0  0  0  0  0  0  0  0  0  0  0
    6.4302   -7.8375    0.0000 O   0  0  0  0  0  0  0  0  0  0  0  0
    5.0013   -7.8375    0.0000 C   0  0  0  0  0  0  0  0  0  0  0  0
    5.0013   -8.6625    0.0000 C   0  0  0  0  0  0  0  0  0  0  0  0
    4.2868   -9.0750    0.0000 C   0  0  0  0  0  0  0  0  0  0  0  0
    4.2868   -9.9000    0.0000 Cl  0  0  0  0  0  0  0  0  0  0  0  0
    3.5724   -8.6625    0.0000 C   0  0  0  0  0  0  0  0  0  0  0  0
    3.5724   -7.8375    0.0000 C   0  0  0  0  0  0  0  0  0  0  0  0
    4.2868   -7.4250    0.0000 C   0  0  0  0  0  0  0  0  0  0  0  0
    4.2868   -6.6000    0.0000 C   0  0  0  0  0  0  0  0  0  0  0  0
    5.0013   -6.1875    0.0000 O   0  0  0  0  0  0  0  0  0  0  0  0
    3.5724   -6.1875    0.0000 O   0  0  0  0  0  0  0  0  0  0  0  0
    7.1447   -6.6000    0.0000 C   0  0  0  0  0  0  0  0  0  0  0  0
    7.8592   -6.1875    0.0000 C   0  0  0  0  0  0  0  0  0  0  0  0
    7.8592   -5.3625    0.0000 C   0  0  0  0  0  0  0  0  0  0  0  0
    7.1447   -4.9500    0.0000 C   0  0  0  0  0  0  0  0  0  0  0  0
    4.2868   -3.3000    0.0000 C   0  0  0  0  0  0  0  0  0  0  0  0
    4.2868   -2.4750    0.0000 C   0  0  0  0  0  0  0  0  0  0  0  0
  1  2  1  0  0  0  0
  2  3  1  0  0  0  0
  3  4  1  0  0  0  0
  4  5  2  0  0  0  0
  5  6  1  0  0  0  0
  6  7  2  0  0  0  0
  7  8  1  0  0  0  0
  8  9  1  0  0  0  0
  9 10  2  0  0  0  0
  9 11  2  0  0  0  0
  9 12  1  0  0  0  0
 12 13  2  0  0  0  0
 13 14  1  0  0  0  0
 14 15  1  0  0  0  0
 15 16  2  0  0  0  0
 15 17  1  0  0  0  0
 17 18  2  0  0  0  0
 18 19  1  0  0  0  0
 19 20  1  0  0  0  0
 19 21  2  0  0  0  0
 21 22  1  0  0  0  0
 22 23  2  0  0  0  0
 17 23  1  0  0  0  0
 23 24  1  0  0  0  0
 24 25  1  0  0  0  0
 24 26  2  0  0  0  0
 13 27  1  0  0  0  0
 27 28  2  0  0  0  0
 28 29  1  0  0  0  0
 29 30  2  0  0  0  0
 12 30  1  0  0  0  0
  7 31  1  0  0  0  0
 31 32  2  0  0  0  0
  4 32  1  0  0  0  0
M  END
> <ID>
CPD_340

$$$$
CPD_345
  Mrv1822 09091914012D          

 27 28  0  0  0  0            999 V2000
    1.4289    0.0000    0.0000 C   0  0  0  0  0  0  0  0  0  0  0  0
    1.4289   -0.8250    0.0000 C   0  0  0  0  0  0  0  0  0  0  0  0
    2.1434   -1.2375    0.0000 O   0  0  0  0  0  0  0  0  0  0  0  0
    2.1434   -2.0625    0.0000 C   0  0  0  0  0  0  0  0  0  0  0  0
    2.8579   -2.4750    0.0000 C   0  0  0  0  0  0  0  0  0  0  0  0
    2.8579   -3.3000    0.0000 C   0  0  0  0  0  0  0  0  0  0  0  0
    2.1434   -3.7125    0.0000 C   0  0  0  0  0  0  0  0  0  0  0  0
    1.4289   -3.3000    0.0000 C   0  0  0  0  0  0  0  0  0  0  0  0
    1.4289   -2.4750    0.0000 C   0  0  0  0  0  0  0  0  0  0  0  0
    2.1434   -4.5375    0.0000 N   0  0  0  0  0  0  0  0  0  0  0  0
    2.8579   -4.9500    0.0000 C   0  0  0  0  0  0  0  0  0  0  0  0
    2.8579   -5.7750    0.0000 O   0  0  0  0  0  0  0  0  0  0  0  0
    3.5724   -4.5375    0.0000 C   0  0  0  0  0  0  0  0  0  0  0  0
    4.2868   -4.9500    0.0000 C   0  0  0  0  0  0  0  0  0  0  0  0
    3.8743   -5.6645    0.0000 C   0  0  0  0  0  0  0  0  0  0  0  0
    4.6993   -4.2355    0.0000 C   0  0  0  0  0  0  0  0  0  0  0  0
    5.0013   -5.3625    0.0000 C   0  0  0  0  0  0  0  0  0  0  0  0
    1.4289   -4.9500    0.0000 S   0  0  0  0  0  0  0  0  0  0  0  0
    1.0164   -4.2355    0.0000 O   0  0  0  0  0  0  0  0  0  0  0  0
    1.8414   -5.6645    0.0000 O   0  0  0  0  0  0  0  0  0  0  0  0
    0.7145   -5.3625    0.0000 C   0  0  0  0  0  0  0  0  0  0  0  0
    0.7145   -6.1875    0.0000 C   0  0  0  0  0  0  0  0  0  0  0  0
    1.4289   -6.6000    0.0000 N   0  0  0  0  0  0  0  0  0  0  0  0
   -0.0000   -6.6000    0.0000 C   0  0  0  0  0  0  0  0  0  0  0  0
   -0.7145   -6.1875    0.0000 C   0  0  0  0  0  0  0  0  0  0  0  0
   -0.7145   -5.3625    0.0000 C   0  0  0  0  0  0  0  0  0  0  0  0
   -0.0000   -4.9500    0.0000 C   0  0  0  0  0  0  0  0  0  0  0  0
  1  2  1  0  0  0  0
  2  3  1  0  0  0  0
  3  4  1  0  0  0  0
  4  5  2  0  0  0  0
  5  6  1  0  0  0  0
  6  7  2  0  0  0  0
  7  8  1  0  0  0  0
  8  9  2  0  0  0  0
  4  9  1  0  0  0  0
  7 10  1  0  0  0  0
 10 11  1  0  0  0  0
 11 12  2  0  0  0  0
 11 13  1  0  0  0  0
 13 14  1  0  0  0  0
 14 15  1  0  0  0  0
 14 16  1  0  0  0  0
 14 17  1  0  0  0  0
 10 18  1  0  0  0  0
 18 19  2  0  0  0  0
 18 20  2  0  0  0  0
 18 21  1  0  0  0  0
 21 22  2  0  0  0  0
 22 23  1  0  0  0  0
 22 24  1  0  0  0  0
 24 25  2  0  0  0  0
 25 26  1  0  0  0  0
 26 27  2  0  0  0  0
 21 27  1  0  0  0  0
M  END
> <ID>
CPD_345

$$$$
CPD_350
  Mrv1822 09091914012D          

 24 25  0  0  0  0            999 V2000
    1.4289    0.0000    0.0000 C   0  0  0  0  0  0  0  0  0  0  0  0
    1.4289   -0.8250    0.0000 C   0  0  0  0  0  0  0  0  0  0  0  0
    2.1434   -1.2375    0.0000 O   0  0  0  0  0  0  0  0  0  0  0  0
    2.1434   -2.0625    0.0000 C   0  0  0  0  0  0  0  0  0  0  0  0
    2.8579   -2.4750    0.0000 C   0  0  0  0  0  0  0  0  0  0  0  0
    2.8579   -3.3000    0.0000 C   0  0  0  0  0  0  0  0  0  0  0  0
    2.1434   -3.7125    0.0000 C   0  0  0  0  0  0  0  0  0  0  0  0
    1.4289   -3.3000    0.0000 C   0  0  0  0  0  0  0  0  0  0  0  0
    1.4289   -2.4750    0.0000 C   0  0  0  0  0  0  0  0  0  0  0  0
    2.1434   -4.5375    0.0000 N   0  0  0  0  0  0  0  0  0  0  0  0
    2.8579   -4.9500    0.0000 C   0  0  0  0  0  0  0  0  0  0  0  0
    2.8579   -5.7750    0.0000 O   0  0  0  0  0  0  0  0  0  0  0  0
    3.5724   -4.5375    0.0000 C   0  0  0  0  0  0  0  0  0  0  0  0
    4.2868   -4.1250    0.0000 N   0  0  0  0  0  0  0  0  0  0  0  0
    1.4289   -4.9500    0.0000 S   0  0  0  0  0  0  0  0  0  0  0  0
    1.0164   -4.2355    0.0000 O   0  0  0  0  0  0  0  0  0  0  0  0
    1.8414   -5.6645    0.0000 O   0  0  0  0  0  0  0  0  0  0  0  0
    0.7145   -5.3625    0.0000 C   0  0  0  0  0  0  0  0  0  0  0  0
    0.7145   -6.1875    0.0000 C   0  0  0  0  0  0  0  0  0  0  0  0
    1.4289   -6.6000    0.0000 N   0  0  0  0  0  0  0  0  0  0  0  0
   -0.0000   -6.6000    0.0000 C   0  0  0  0  0  0  0  0  0  0  0  0
   -0.7145   -6.1875    0.0000 C   0  0  0  0  0  0  0  0  0  0  0  0
   -0.7145   -5.3625    0.0000 C   0  0  0  0  0  0  0  0  0  0  0  0
   -0.0000   -4.9500    0.0000 C   0  0  0  0  0  0  0  0  0  0  0  0
  1  2  1  0  0  0  0
  2  3  1  0  0  0  0
  3  4  1  0  0  0  0
  4  5  2  0  0  0  0
  5  6  1  0  0  0  0
  6  7  2  0  0  0  0
  7  8  1  0  0  0  0
  8  9  2  0  0  0  0
  4  9  1  0  0  0  0
  7 10  1  0  0  0  0
 10 11  1  0  0  0  0
 11 12  2  0  0  0  0
 11 13  1  0  0  0  0
 13 14  3  0  0  0  0
 10 15  1  0  0  0  0
 15 16  2  0  0  0  0
 15 17  2  0  0  0  0
 15 18  1  0  0  0  0
 18 19  2  0  0  0  0
 19 20  1  0  0  0  0
 19 21  1  0  0  0  0
 21 22  2  0  0  0  0
 22 23  1  0  0  0  0
 23 24  2  0  0  0  0
 18 24  1  0  0  0  0
M  END
> <ID>
CPD_350

$$$$
CPD_355
  Mrv1822 09091914012D          

 26 28  0  0  1  0            999 V2000
    1.4289    0.8250    0.0000 N   0  0  0  0  0  0  0  0  0  0  0  0
    0.7145    1.2375    0.0000 C   0  0  0  0  0  0  0  0  0  0  0  0
    0.0000    0.8250    0.0000 C   0  0  0  0  0  0  0  0  0  0  0  0
    0.0000   -0.0000    0.0000 N   0  0  0  0  0  0  0  0  0  0  0  0
    0.7145   -0.4125    0.0000 C   0  0  0  0  0  0  0  0  0  0  0  0
    1.4289   -0.0000    0.0000 O   0  0  0  0  0  0  0  0  0  0  0  0
    0.7145   -1.2375    0.0000 C   0  0  1  0  0  0  0  0  0  0  0  0
    1.3819   -1.7224    0.0000 C   0  0  0  0  0  0  0  0  0  0  0  0
    1.1270   -2.5070    0.0000 S   0  0  0  0  0  0  0  0  0  0  0  0
    0.3020   -2.5070    0.0000 C   0  0  0  0  0  0  0  0  0  0  0  0
    0.0470   -1.7224    0.0000 N   0  0  0  0  0  0  0  0  0  0  0  0
   -0.1830   -3.1745    0.0000 C   0  0  0  0  0  0  0  0  0  0  0  0
    0.1526   -3.9282    0.0000 C   0  0  0  0  0  0  0  0  0  0  0  0
    0.9731   -4.0144    0.0000 F   0  0  0  0  0  0  0  0  0  0  0  0
   -0.3323   -4.5956    0.0000 C   0  0  0  0  0  0  0  0  0  0  0  0
    0.0032   -5.3493    0.0000 F   0  0  0  0  0  0  0  0  0  0  0  0
   -1.1528   -4.5094    0.0000 C   0  0  0  0  0  0  0  0  0  0  0  0
   -1.6377   -5.1768    0.0000 F   0  0  0  0  0  0  0  0  0  0  0  0
   -1.4884   -3.7557    0.0000 C   0  0  0  0  0  0  0  0  0  0  0  0
   -1.0034   -3.0882    0.0000 C   0  0  0  0  0  0  0  0  0  0  0  0
   -0.7145    1.2375    0.0000 C   0  0  0  0  0  0  0  0  0  0  0  0
   -0.7145    2.0625    0.0000 C   0  0  0  0  0  0  0  0  0  0  0  0
   -1.4289    2.4750    0.0000 C   0  0  0  0  0  0  0  0  0  0  0  0
   -2.1434    2.0625    0.0000 O   0  0  0  0  0  0  0  0  0  0  0  0
    0.0000    2.4750    0.0000 C   0  0  0  0  0  0  0  0  0  0  0  0
    0.7145    2.0625    0.0000 C   0  0  0  0  0  0  0  0  0  0  0  0
  1  2  1  0  0  0  0
  2  3  2  0  0  0  0
  3  4  1  0  0  0  0
  4  5  1  0  0  0  0
  5  6  2  0  0  0  0
  7  5  1  1  0  0  0
  7  8  1  0  0  0  0
  8  9  1  0  0  0  0
  9 10  1  0  0  0  0
 10 11  1  0  0  0  0
  7 11  1  0  0  0  0
 10 12  1  0  0  0  0
 12 13  2  0  0  0  0
 13 14  1  0  0  0  0
 13 15  1  0  0  0  0
 15 16  1  0  0  0  0
 15 17  2  0  0  0  0
 17 18  1  0  0  0  0
 17 19  1  0  0  0  0
 19 20  2  0  0  0  0
 12 20  1  0  0  0  0
  3 21  1  0  0  0  0
 21 22  2  0  0  0  0
 22 23  1  0  0  0  0
 23 24  1  0  0  0  0
 22 25  1  0  0  0  0
 25 26  2  0  0  0  0
  2 26  1  0  0  0  0
M  END
> <ID>
CPD_355

$$$$
CPD_360
  Mrv1822 09091914012D          

 31 33  0  0  0  0            999 V2000
    0.2414   -4.6481    0.0000 C   0  0  0  0  0  0  0  0  0  0  0  0
    0.9559   -4.2356    0.0000 O   0  0  0  0  0  0  0  0  0  0  0  0
    1.6703   -4.6481    0.0000 C   0  0  0  0  0  0  0  0  0  0  0  0
    2.3848   -4.2356    0.0000 C   0  0  0  0  0  0  0  0  0  0  0  0
    3.0993   -4.6481    0.0000 C   0  0  0  0  0  0  0  0  0  0  0  0
    3.0993   -5.4731    0.0000 C   0  0  0  0  0  0  0  0  0  0  0  0
    3.8137   -5.8856    0.0000 C   0  0  0  0  0  0  0  0  0  0  0  0
    4.5282   -5.4731    0.0000 C   0  0  0  0  0  0  0  0  0  0  0  0
    5.2427   -5.8856    0.0000 C   0  0  0  0  0  0  0  0  0  0  0  0
    5.2427   -6.7106    0.0000 O   0  0  0  0  0  0  0  0  0  0  0  0
    5.9572   -5.4731    0.0000 N   0  0  0  0  0  0  0  0  0  0  0  0
    6.6716   -5.8856    0.0000 C   0  0  0  0  0  0  0  0  0  0  0  0
    7.4253   -5.5500    0.0000 N   0  0  0  0  0  0  0  0  0  0  0  0
    7.9773   -6.1631    0.0000 C   0  0  0  0  0  0  0  0  0  0  0  0
    8.7978   -6.0769    0.0000 C   0  0  0  0  0  0  0  0  0  0  0  0
    9.2827   -6.7443    0.0000 C   0  0  0  0  0  0  0  0  0  0  0  0
    8.9472   -7.4980    0.0000 O   0  0  0  0  0  0  0  0  0  0  0  0
   10.1032   -6.6581    0.0000 N   0  0  0  0  0  0  0  0  0  0  0  0
   10.5881   -7.3255    0.0000 C   0  0  0  0  0  0  0  0  0  0  0  0
   11.4086   -7.2393    0.0000 C   0  0  0  0  0  0  0  0  0  0  0  0
   11.7442   -6.4856    0.0000 N   0  0  0  0  0  0  0  0  0  0  0  0
   11.8935   -7.9067    0.0000 C   0  0  0  0  0  0  0  0  0  0  0  0
   11.5580   -8.6604    0.0000 C   0  0  0  0  0  0  0  0  0  0  0  0
   12.0429   -9.3279    0.0000 C   0  0  0  0  0  0  0  0  0  0  0  0
   12.8634   -9.2416    0.0000 O   0  0  0  0  0  0  0  0  0  0  0  0
   10.7375   -8.7467    0.0000 C   0  0  0  0  0  0  0  0  0  0  0  0
   10.2526   -8.0792    0.0000 C   0  0  0  0  0  0  0  0  0  0  0  0
    7.5648   -6.8776    0.0000 C   0  0  0  0  0  0  0  0  0  0  0  0
    6.7579   -6.7061    0.0000 S   0  0  0  0  0  0  0  0  0  0  0  0
    2.3848   -5.8856    0.0000 C   0  0  0  0  0  0  0  0  0  0  0  0
    1.6703   -5.4731    0.0000 C   0  0  0  0  0  0  0  0  0  0  0  0
  1  2  1  0  0  0  0
  2  3  1  0  0  0  0
  3  4  2  0  0  0  0
  4  5  1  0  0  0  0
  5  6  2  0  0  0  0
  6  7  1  0  0  0  0
  7  8  1  0  0  0  0
  8  9  1  0  0  0  0
  9 10  2  0  0  0  0
  9 11  1  0  0  0  0
 11 12  1  0  0  0  0
 12 13  2  0  0  0  0
 13 14  1  0  0  0  0
 14 15  1  0  0  0  0
 15 16  1  0  0  0  0
 16 17  2  0  0  0  0
 16 18  1  0  0  0  0
 18 19  1  0  0  0  0
 19 20  2  0  0  0  0
 20 21  1  0  0  0  0
 20 22  1  0  0  0  0
 22 23  2  0  0  0  0
 23 24  1  0  0  0  0
 24 25  1  0  0  0  0
 23 26  1  0  0  0  0
 26 27  2  0  0  0  0
 19 27  1  0  0  0  0
 14 28  2  0  0  0  0
 28 29  1  0  0  0  0
 12 29  1  0  0  0  0
  6 30  1  0  0  0  0
 30 31  2  0  0  0  0
  3 31  1  0  0  0  0
M  END
> <ID>
CPD_360

$$$$
CPD_365
  Mrv1822 09091914012D          

 33 35  0  0  1  0            999 V2000
    2.2501    3.6509    0.0000 C   0  0  0  0  0  0  0  0  0  0  0  0
    1.5356    3.2384    0.0000 O   0  0  0  0  0  0  0  0  0  0  0  0
    1.5356    2.4134    0.0000 C   0  0  0  0  0  0  0  0  0  0  0  0
    2.2501    2.0009    0.0000 O   0  0  0  0  0  0  0  0  0  0  0  0
    0.8212    2.0009    0.0000 C   0  0  0  0  0  0  0  0  0  0  0  0
    0.8212    1.1759    0.0000 C   0  0  0  0  0  0  0  0  0  0  0  0
    0.1067    0.7634    0.0000 C   0  0  0  0  0  0  0  0  0  0  0  0
    0.1067   -0.0616    0.0000 N   0  0  0  0  0  0  0  0  0  0  0  0
   -0.6078    1.1759    0.0000 C   0  0  0  0  0  0  0  0  0  0  0  0
   -0.6078    2.0009    0.0000 C   0  0  0  0  0  0  0  0  0  0  0  0
    0.1067    2.4134    0.0000 C   0  0  0  0  0  0  0  0  0  0  0  0
   -1.3222    0.7634    0.0000 N   0  0  0  0  0  0  0  0  0  0  0  0
   -2.0367    1.1759    0.0000 C   0  0  0  0  0  0  0  0  0  0  0  0
   -2.7512    0.7634    0.0000 C   0  0  0  0  0  0  0  0  0  0  0  0
   -3.4656    1.1759    0.0000 C   0  0  0  0  0  0  0  0  0  0  0  0
   -3.4656    2.0009    0.0000 C   0  0  0  0  0  0  0  0  0  0  0  0
   -2.7512    2.4134    0.0000 C   0  0  0  0  0  0  0  0  0  0  0  0
   -2.0367    2.0009    0.0000 C   0  0  0  0  0  0  0  0  0  0  0  0
   -1.3222   -0.0616    0.0000 C   0  0  0  0  0  0  0  0  0  0  0  0
   -0.6078   -0.4741    0.0000 O   0  0  0  0  0  0  0  0  0  0  0  0
   -2.0367   -0.4741    0.0000 C   0  0  0  0  0  0  0  0  0  0  0  0
   -2.0367   -1.2991    0.0000 C   0  0  2  0  0  0  0  0  0  0  0  0
   -1.3693   -1.7840    0.0000 C   0  0  0  0  0  0  0  0  0  0  0  0
   -1.6242   -2.5687    0.0000 C   0  0  0  0  0  0  0  0  0  0  0  0
   -2.4492   -2.5687    0.0000 C   0  0  0  0  0  0  0  0  0  0  0  0
   -2.7041   -1.7840    0.0000 N   0  0  0  0  0  0  0  0  0  0  0  0
   -3.4888   -1.5291    0.0000 C   0  0  0  0  0  0  0  0  0  0  0  0
   -3.6603   -0.7221    0.0000 O   0  0  0  0  0  0  0  0  0  0  0  0
   -4.1019   -2.0811    0.0000 O   0  0  0  0  0  0  0  0  0  0  0  0
   -3.9303   -2.8881    0.0000 C   0  0  0  0  0  0  0  0  0  0  0  0
   -3.7588   -3.6951    0.0000 C   0  0  0  0  0  0  0  0  0  0  0  0
   -4.7373   -3.0596    0.0000 C   0  0  0  0  0  0  0  0  0  0  0  0
   -3.1234   -2.7166    0.0000 C   0  0  0  0  0  0  0  0  0  0  0  0
  1  2  1  0  0  0  0
  2  3  1  0  0  0  0
  3  4  2  0  0  0  0
  3  5  1  0  0  0  0
  5  6  2  0  0  0  0
  6  7  1  0  0  0  0
  7  8  1  0  0  0  0
  7  9  2  0  0  0  0
  9 10  1  0  0  0  0
 10 11  2  0  0  0  0
  5 11  1  0  0  0  0
  9 12  1  0  0  0  0
 12 13  1  0  0  0  0
 13 14  1  0  0  0  0
 14 15  1  0  0  0  0
 15 16  1  0  0  0  0
 16 17  1  0  0  0  0
 17 18  1  0  0  0  0
 13 18  1  0  0  0  0
 12 19  1  0  0  0  0
 19 20  2  0  0  0  0
 19 21  1  0  0  0  0
 22 21  1  6  0  0  0
 22 23  1  0  0  0  0
 23 24  1  0  0  0  0
 24 25  1  0  0  0  0
 25 26  1  0  0  0  0
 22 26  1  0  0  0  0
 26 27  1  0  0  0  0
 27 28  2  0  0  0  0
 27 29  1  0  0  0  0
 29 30  1  0  0  0  0
 30 31  1  0  0  0  0
 30 32  1  0  0  0  0
 30 33  1  0  0  0  0
M  END
> <ID>
CPD_365

$$$$
CPD_370
  Mrv1822 09091914012D          

 37 40  0  0  0  0            999 V2000
   -1.3222   -1.7116    0.0000 C   0  0  0  0  0  0  0  0  0  0  0  0
   -1.3222   -2.5366    0.0000 O   0  0  0  0  0  0  0  0  0  0  0  0
   -0.6078   -2.9491    0.0000 C   0  0  0  0  0  0  0  0  0  0  0  0
   -0.6078   -3.7741    0.0000 C   0  0  0  0  0  0  0  0  0  0  0  0
    0.0597   -4.2590    0.0000 C   0  0  0  0  0  0  0  0  0  0  0  0
   -0.1953   -5.0437    0.0000 N   0  0  0  0  0  0  0  0  0  0  0  0
   -1.0203   -5.0437    0.0000 N   0  0  0  0  0  0  0  0  0  0  0  0
   -1.2752   -4.2590    0.0000 N   0  0  0  0  0  0  0  0  0  0  0  0
   -2.0598   -4.0041    0.0000 C   0  0  0  0  0  0  0  0  0  0  0  0
   -2.6729   -4.5561    0.0000 C   0  0  0  0  0  0  0  0  0  0  0  0
   -3.4575   -4.3012    0.0000 C   0  0  0  0  0  0  0  0  0  0  0  0
   -3.6291   -3.4942    0.0000 C   0  0  0  0  0  0  0  0  0  0  0  0
   -3.0160   -2.9422    0.0000 C   0  0  0  0  0  0  0  0  0  0  0  0
   -2.2314   -3.1971    0.0000 C   0  0  0  0  0  0  0  0  0  0  0  0
   -4.4137   -3.2393    0.0000 C   0  0  0  0  0  0  0  0  0  0  0  0
   -4.5852   -2.4323    0.0000 C   0  0  0  0  0  0  0  0  0  0  0  0
   -5.0268   -3.7913    0.0000 C   0  0  0  0  0  0  0  0  0  0  0  0
    0.8443   -4.0041    0.0000 C   0  0  0  0  0  0  0  0  0  0  0  0
    1.4574   -4.5561    0.0000 O   0  0  0  0  0  0  0  0  0  0  0  0
    1.0158   -3.1971    0.0000 N   0  0  0  0  0  0  0  0  0  0  0  0
    1.8004   -2.9422    0.0000 C   0  0  0  0  0  0  0  0  0  0  0  0
    1.9720   -2.1352    0.0000 C   0  0  0  0  0  0  0  0  0  0  0  0
    1.3589   -1.5832    0.0000 N   0  0  0  0  0  0  0  0  0  0  0  0
    1.5304   -0.7762    0.0000 C   0  0  0  0  0  0  0  0  0  0  0  0
    0.9173   -0.2242    0.0000 C   0  0  0  0  0  0  0  0  0  0  0  0
    1.0888    0.5828    0.0000 C   0  0  0  0  0  0  0  0  0  0  0  0
    1.8735    0.8377    0.0000 C   0  0  0  0  0  0  0  0  0  0  0  0
    2.4866    0.2857    0.0000 C   0  0  0  0  0  0  0  0  0  0  0  0
    2.3150   -0.5213    0.0000 C   0  0  0  0  0  0  0  0  0  0  0  0
    2.7566   -1.8803    0.0000 C   0  0  0  0  0  0  0  0  0  0  0  0
    3.3697   -2.4323    0.0000 C   0  0  0  0  0  0  0  0  0  0  0  0
    3.1982   -3.2393    0.0000 C   0  0  0  0  0  0  0  0  0  0  0  0
    2.4135   -3.4942    0.0000 C   0  0  0  0  0  0  0  0  0  0  0  0
    3.8113   -3.7913    0.0000 C   0  0  0  0  0  0  0  0  0  0  0  0
    3.6397   -4.5983    0.0000 O   0  0  0  0  0  0  0  0  0  0  0  0
    4.5959   -3.5364    0.0000 O   0  0  0  0  0  0  0  0  0  0  0  0
    5.2090   -4.0884    0.0000 C   0  0  0  0  0  0  0  0  0  0  0  0
  1  2  1  0  0  0  0
  2  3  1  0  0  0  0
  3  4  1  0  0  0  0
  4  5  2  0  0  0  0
  5  6  1  0  0  0  0
  6  7  2  0  0  0  0
  7  8  1  0  0  0  0
  4  8  1  0  0  0  0
  8  9  1  0  0  0  0
  9 10  2  0  0  0  0
 10 11  1  0  0  0  0
 11 12  2  0  0  0  0
 12 13  1  0  0  0  0
 13 14  2  0  0  0  0
  9 14  1  0  0  0  0
 12 15  1  0  0  0  0
 15 16  1  0  0  0  0
 15 17  1  0  0  0  0
  5 18  1  0  0  0  0
 18 19  2  0  0  0  0
 18 20  1  0  0  0  0
 20 21  1  0  0  0  0
 21 22  2  0  0  0  0
 22 23  1  0  0  0  0
 23 24  1  0  0  0  0
 24 25  1  0  0  0  0
 25 26  1  0  0  0  0
 26 27  1  0  0  0  0
 27 28  1  0  0  0  0
 28 29  1  0  0  0  0
 24 29  1  0  0  0  0
 22 30  1  0  0  0  0
 30 31  2  0  0  0  0
 31 32  1  0  0  0  0
 32 33  2  0  0  0  0
 21 33  1  0  0  0  0
 32 34  1  0  0  0  0
 34 35  2  0  0  0  0
 34 36  1  0  0  0  0
 36 37  1  0  0  0  0
M  END
> <ID>
CPD_370

$$$$
CPD_375
  Mrv1822 09091914012D          

 31 34  0  0  0  0            999 V2000
   -3.7421    2.2783    0.0000 C   0  0  0  0  0  0  0  0  0  0  0  0
   -3.1900    1.6652    0.0000 O   0  0  0  0  0  0  0  0  0  0  0  0
   -2.3831    1.8367    0.0000 C   0  0  0  0  0  0  0  0  0  0  0  0
   -2.1281    2.6213    0.0000 O   0  0  0  0  0  0  0  0  0  0  0  0
   -1.8310    1.2236    0.0000 C   0  0  0  0  0  0  0  0  0  0  0  0
   -1.0241    1.3951    0.0000 C   0  0  0  0  0  0  0  0  0  0  0  0
   -0.4720    0.7820    0.0000 C   0  0  0  0  0  0  0  0  0  0  0  0
    0.3349    0.9536    0.0000 N   0  0  0  0  0  0  0  0  0  0  0  0
   -0.7270   -0.0026    0.0000 C   0  0  0  0  0  0  0  0  0  0  0  0
   -1.5340   -0.1741    0.0000 C   0  0  0  0  0  0  0  0  0  0  0  0
   -2.0860    0.4390    0.0000 C   0  0  0  0  0  0  0  0  0  0  0  0
   -0.1749   -0.6157    0.0000 N   0  0  0  0  0  0  0  0  0  0  0  0
   -0.4299   -1.4003    0.0000 C   0  0  0  0  0  0  0  0  0  0  0  0
    0.1221   -2.0134    0.0000 C   0  0  0  0  0  0  0  0  0  0  0  0
   -0.1328   -2.7980    0.0000 C   0  0  0  0  0  0  0  0  0  0  0  0
   -0.9398   -2.9695    0.0000 C   0  0  0  0  0  0  0  0  0  0  0  0
   -1.4918   -2.3564    0.0000 C   0  0  0  0  0  0  0  0  0  0  0  0
   -1.2369   -1.5718    0.0000 C   0  0  0  0  0  0  0  0  0  0  0  0
    0.6320   -0.4441    0.0000 C   0  0  0  0  0  0  0  0  0  0  0  0
    0.8870    0.3405    0.0000 O   0  0  0  0  0  0  0  0  0  0  0  0
    1.1841   -1.0572    0.0000 C   0  0  0  0  0  0  0  0  0  0  0  0
    1.8515   -1.5422    0.0000 C   0  0  0  0  0  0  0  0  0  0  0  0
    1.5966   -2.3268    0.0000 C   0  0  0  0  0  0  0  0  0  0  0  0
    0.7716   -2.3268    0.0000 C   0  0  0  0  0  0  0  0  0  0  0  0
    0.5166   -1.5422    0.0000 N   0  0  0  0  0  0  0  0  0  0  0  0
    1.7361   -0.4441    0.0000 C   0  0  0  0  0  0  0  0  0  0  0  0
    1.4812    0.3405    0.0000 C   0  0  0  0  0  0  0  0  0  0  0  0
    2.0332    0.9536    0.0000 C   0  0  0  0  0  0  0  0  0  0  0  0
    2.8402    0.7820    0.0000 C   0  0  0  0  0  0  0  0  0  0  0  0
    3.0951   -0.0026    0.0000 C   0  0  0  0  0  0  0  0  0  0  0  0
    2.5431   -0.6157    0.0000 C   0  0  0  0  0  0  0  0  0  0  0  0
  1  2  1  0  0  0  0
  2  3  1  0  0  0  0
  3  4  2  0  0  0  0
  3  5  1  0  0  0  0
  5  6  2  0  0  0  0
  6  7  1  0  0  0  0
  7  8  1  0  0  0  0
  7  9  2  0  0  0  0
  9 10  1  0  0  0  0
 10 11  2  0  0  0  0
  5 11  1  0  0  0  0
  9 12  1  0  0  0  0
 12 13  1  0  0  0  0
 13 14  1  0  0  0  0
 14 15  1  0  0  0  0
 15 16  1  0  0  0  0
 16 17  1  0  0  0  0
 17 18  1  0  0  0  0
 13 18  1  0  0  0  0
 12 19  1  0  0  0  0
 19 20  2  0  0  0  0
 19 21  1  0  0  0  0
 21 22  1  0  0  0  0
 22 23  1  0  0  0  0
 23 24  1  0  0  0  0
 24 25  1  0  0  0  0
 21 25  1  0  0  0  0
 21 26  1  0  0  0  0
 26 27  2  0  0  0  0
 27 28  1  0  0  0  0
 28 29  2  0  0  0  0
 29 30  1  0  0  0  0
 30 31  2  0  0  0  0
 26 31  1  0  0  0  0
M  END
> <ID>
CPD_375

$$$$
CPD_380
  Mrv1822 09091914012D          

 34 36  0  0  0  0            999 V2000
    2.1434   -2.0625    0.0000 C   0  0  0  0  0  0  0  0  0  0  0  0
    1.4289   -2.4750    0.0000 C   0  0  0  0  0  0  0  0  0  0  0  0
    0.7145   -2.0625    0.0000 O   0  0  0  0  0  0  0  0  0  0  0  0
    1.4289   -3.3000    0.0000 C   0  0  0  0  0  0  0  0  0  0  0  0
    2.1434   -3.7125    0.0000 C   0  0  0  0  0  0  0  0  0  0  0  0
    2.8579   -3.3000    0.0000 F   0  0  0  0  0  0  0  0  0  0  0  0
    2.1434   -4.5375    0.0000 C   0  0  0  0  0  0  0  0  0  0  0  0
    1.4289   -4.9500    0.0000 C   0  0  0  0  0  0  0  0  0  0  0  0
    0.7145   -4.5375    0.0000 C   0  0  0  0  0  0  0  0  0  0  0  0
    0.3789   -5.2912    0.0000 F   0  0  0  0  0  0  0  0  0  0  0  0
    0.7145   -3.7125    0.0000 C   0  0  0  0  0  0  0  0  0  0  0  0
    0.0000   -3.3000    0.0000 C   0  0  0  0  0  0  0  0  0  0  0  0
    0.0000   -2.4750    0.0000 O   0  0  0  0  0  0  0  0  0  0  0  0
   -0.7145   -3.7125    0.0000 N   0  0  0  0  0  0  0  0  0  0  0  0
   -0.7145   -4.5375    0.0000 C   0  0  0  0  0  0  0  0  0  0  0  0
    0.0000   -4.9500    0.0000 C   0  0  0  0  0  0  0  0  0  0  0  0
    0.0000   -5.7750    0.0000 C   0  0  0  0  0  0  0  0  0  0  0  0
   -0.7145   -6.1875    0.0000 C   0  0  0  0  0  0  0  0  0  0  0  0
   -0.7145   -7.0125    0.0000 Cl  0  0  0  0  0  0  0  0  0  0  0  0
   -1.4289   -5.7750    0.0000 C   0  0  0  0  0  0  0  0  0  0  0  0
   -1.4289   -4.9500    0.0000 C   0  0  0  0  0  0  0  0  0  0  0  0
   -2.1434   -6.1875    0.0000 C   0  0  0  0  0  0  0  0  0  0  0  0
   -2.8579   -5.7750    0.0000 O   0  0  0  0  0  0  0  0  0  0  0  0
   -2.1434   -7.0125    0.0000 O   0  0  0  0  0  0  0  0  0  0  0  0
   -1.4289   -3.3000    0.0000 S   0  0  0  0  0  0  0  0  0  0  0  0
   -1.0164   -2.5855    0.0000 O   0  0  0  0  0  0  0  0  0  0  0  0
   -1.8414   -4.0145    0.0000 O   0  0  0  0  0  0  0  0  0  0  0  0
   -2.1434   -2.8875    0.0000 C   0  0  0  0  0  0  0  0  0  0  0  0
   -2.8579   -3.3000    0.0000 C   0  0  0  0  0  0  0  0  0  0  0  0
   -3.5724   -2.8875    0.0000 C   0  0  0  0  0  0  0  0  0  0  0  0
   -3.5724   -2.0625    0.0000 C   0  0  0  0  0  0  0  0  0  0  0  0
   -4.2868   -1.6500    0.0000 C   0  0  0  0  0  0  0  0  0  0  0  0
   -2.8579   -1.6500    0.0000 C   0  0  0  0  0  0  0  0  0  0  0  0
   -2.1434   -2.0625    0.0000 C   0  0  0  0  0  0  0  0  0  0  0  0
  1  2  1  0  0  0  0
  2  3  2  0  0  0  0
  2  4  1  0  0  0  0
  4  5  2  0  0  0  0
  5  6  1  0  0  0  0
  5  7  1  0  0  0  0
  7  8  2  0  0  0  0
  8  9  1  0  0  0  0
  9 10  1  0  0  0  0
  9 11  2  0  0  0  0
  4 11  1  0  0  0  0
 11 12  1  0  0  0  0
 12 13  2  0  0  0  0
 12 14  1  0  0  0  0
 14 15  1  0  0  0  0
 15 16  2  0  0  0  0
 16 17  1  0  0  0  0
 17 18  2  0  0  0  0
 18 19  1  0  0  0  0
 18 20  1  0  0  0  0
 20 21  2  0  0  0  0
 15 21  1  0  0  0  0
 20 22  1  0  0  0  0
 22 23  1  0  0  0  0
 22 24  2  0  0  0  0
 14 25  1  0  0  0  0
 25 26  2  0  0  0  0
 25 27  2  0  0  0  0
 25 28  1  0  0  0  0
 28 29  2  0  0  0  0
 29 30  1  0  0  0  0
 30 31  2  0  0  0  0
 31 32  1  0  0  0  0
 31 33  1  0  0  0  0
 33 34  2  0  0  0  0
 28 34  1  0  0  0  0
M  END
> <ID>
CPD_380

$$$$
CPD_385
  Mrv1822 09091914012D          

 31 34  0  0  0  0            999 V2000
    5.6424    0.6979    0.0000 C   0  0  0  0  0  0  0  0  0  0  0  0
    4.9279    1.1104    0.0000 O   0  0  0  0  0  0  0  0  0  0  0  0
    4.2135    0.6979    0.0000 C   0  0  0  0  0  0  0  0  0  0  0  0
    4.2135   -0.1271    0.0000 C   0  0  0  0  0  0  0  0  0  0  0  0
    3.4990   -0.5396    0.0000 C   0  0  0  0  0  0  0  0  0  0  0  0
    2.7845   -0.1271    0.0000 C   0  0  0  0  0  0  0  0  0  0  0  0
    2.7845    0.6979    0.0000 C   0  0  0  0  0  0  0  0  0  0  0  0
    3.4990    1.1104    0.0000 C   0  0  0  0  0  0  0  0  0  0  0  0
    2.0701    1.1104    0.0000 C   0  0  0  0  0  0  0  0  0  0  0  0
    1.3556    0.6979    0.0000 N   0  0  0  0  0  0  0  0  0  0  0  0
    0.6411    1.1104    0.0000 C   0  0  0  0  0  0  0  0  0  0  0  0
   -0.1435    0.8555    0.0000 C   0  0  0  0  0  0  0  0  0  0  0  0
   -0.6284    1.5229    0.0000 C   0  0  0  0  0  0  0  0  0  0  0  0
   -0.1435    2.1904    0.0000 N   0  0  0  0  0  0  0  0  0  0  0  0
    0.6411    1.9354    0.0000 N   0  0  0  0  0  0  0  0  0  0  0  0
    1.3556    2.3479    0.0000 C   0  0  0  0  0  0  0  0  0  0  0  0
    2.0701    1.9354    0.0000 C   0  0  0  0  0  0  0  0  0  0  0  0
    1.3556    3.1729    0.0000 C   0  0  0  0  0  0  0  0  0  0  0  0
    1.3556    3.9979    0.0000 F   0  0  0  0  0  0  0  0  0  0  0  0
    2.1806    3.1729    0.0000 F   0  0  0  0  0  0  0  0  0  0  0  0
    0.5306    3.1729    0.0000 F   0  0  0  0  0  0  0  0  0  0  0  0
   -0.3984    0.0709    0.0000 C   0  0  0  0  0  0  0  0  0  0  0  0
   -1.2054   -0.1006    0.0000 O   0  0  0  0  0  0  0  0  0  0  0  0
    0.1536   -0.5422    0.0000 N   0  0  0  0  0  0  0  0  0  0  0  0
   -0.1014   -1.3268    0.0000 C   0  0  0  0  0  0  0  0  0  0  0  0
    0.4507   -1.9399    0.0000 N   0  0  0  0  0  0  0  0  0  0  0  0
    0.1957   -2.7246    0.0000 C   0  0  0  0  0  0  0  0  0  0  0  0
    0.7478   -3.3376    0.0000 N   0  0  0  0  0  0  0  0  0  0  0  0
   -0.6112   -2.8961    0.0000 C   0  0  0  0  0  0  0  0  0  0  0  0
   -1.1633   -2.2830    0.0000 N   0  0  0  0  0  0  0  0  0  0  0  0
   -0.9083   -1.4984    0.0000 C   0  0  0  0  0  0  0  0  0  0  0  0
  1  2  1  0  0  0  0
  2  3  1  0  0  0  0
  3  4  2  0  0  0  0
  4  5  1  0  0  0  0
  5  6  2  0  0  0  0
  6  7  1  0  0  0  0
  7  8  2  0  0  0  0
  3  8  1  0  0  0  0
  7  9  1  0  0  0  0
  9 10  2  0  0  0  0
 10 11  1  0  0  0  0
 11 12  2  0  0  0  0
 12 13  1  0  0  0  0
 13 14  2  0  0  0  0
 14 15  1  0  0  0  0
 11 15  1  0  0  0  0
 15 16  1  0  0  0  0
 16 17  2  0  0  0  0
  9 17  1  0  0  0  0
 16 18  1  0  0  0  0
 18 19  1  0  0  0  0
 18 20  1  0  0  0  0
 18 21  1  0  0  0  0
 12 22  1  0  0  0  0
 22 23  2  0  0  0  0
 22 24  1  0  0  0  0
 24 25  1  0  0  0  0
 25 26  2  0  0  0  0
 26 27  1  0  0  0  0
 27 28  1  0  0  0  0
 27 29  2  0  0  0  0
 29 30  1  0  0  0  0
 30 31  2  0  0  0  0
 25 31  1  0  0  0  0
M  END
> <ID>
CPD_385

$$$$
CPD_390
  Mrv1822 09091914012D          

 25 27  0  0  0  0            999 V2000
    2.8579   -1.6500    0.0000 N   0  0  0  0  0  0  0  0  0  0  0  0
    2.8579   -2.4750    0.0000 C   0  0  0  0  0  0  0  0  0  0  0  0
    3.5724   -2.8875    0.0000 C   0  0  0  0  0  0  0  0  0  0  0  0
    3.5724   -3.7125    0.0000 N   0  0  0  0  0  0  0  0  0  0  0  0
    2.8579   -4.1250    0.0000 C   0  0  0  0  0  0  0  0  0  0  0  0
    2.1434   -3.7125    0.0000 C   0  0  0  0  0  0  0  0  0  0  0  0
    1.4289   -4.1250    0.0000 N   0  0  0  0  0  0  0  0  0  0  0  0
    1.4289   -4.9500    0.0000 C   0  0  0  0  0  0  0  0  0  0  0  0
    0.7145   -5.3625    0.0000 O   0  0  0  0  0  0  0  0  0  0  0  0
    2.1434   -5.3625    0.0000 C   0  0  0  0  0  0  0  0  0  0  0  0
    2.1434   -6.1875    0.0000 C   0  0  0  0  0  0  0  0  0  0  0  0
    2.8579   -6.6000    0.0000 C   0  0  0  0  0  0  0  0  0  0  0  0
    3.5724   -6.1875    0.0000 C   0  0  0  0  0  0  0  0  0  0  0  0
    3.5724   -5.3625    0.0000 C   0  0  0  0  0  0  0  0  0  0  0  0
    4.2868   -4.9500    0.0000 F   0  0  0  0  0  0  0  0  0  0  0  0
    2.8579   -4.9500    0.0000 C   0  0  0  0  0  0  0  0  0  0  0  0
    1.4289   -6.6000    0.0000 C   0  0  0  0  0  0  0  0  0  0  0  0
    1.4289   -7.4250    0.0000 C   0  0  0  0  0  0  0  0  0  0  0  0
    2.1434   -7.8375    0.0000 F   0  0  0  0  0  0  0  0  0  0  0  0
    0.7145   -7.8375    0.0000 C   0  0  0  0  0  0  0  0  0  0  0  0
   -0.0000   -7.4250    0.0000 C   0  0  0  0  0  0  0  0  0  0  0  0
   -0.7145   -7.8375    0.0000 F   0  0  0  0  0  0  0  0  0  0  0  0
   -0.0000   -6.6000    0.0000 C   0  0  0  0  0  0  0  0  0  0  0  0
    0.7145   -6.1875    0.0000 C   0  0  0  0  0  0  0  0  0  0  0  0
    2.1434   -2.8875    0.0000 N   0  0  0  0  0  0  0  0  0  0  0  0
  1  2  1  0  0  0  0
  2  3  2  0  0  0  0
  3  4  1  0  0  0  0
  4  5  2  0  0  0  0
  5  6  1  0  0  0  0
  6  7  1  0  0  0  0
  7  8  1  0  0  0  0
  8  9  2  0  0  0  0
  8 10  1  0  0  0  0
 10 11  2  0  0  0  0
 11 12  1  0  0  0  0
 12 13  2  0  0  0  0
 13 14  1  0  0  0  0
 14 15  1  0  0  0  0
 14 16  2  0  0  0  0
 10 16  1  0  0  0  0
 11 17  1  0  0  0  0
 17 18  2  0  0  0  0
 18 19  1  0  0  0  0
 18 20  1  0  0  0  0
 20 21  2  0  0  0  0
 21 22  1  0  0  0  0
 21 23  1  0  0  0  0
 23 24  2  0  0  0  0
 17 24  1  0  0  0  0
  6 25  2  0  0  0  0
  2 25  1  0  0  0  0
M  END
> <ID>
CPD_390

$$$$
CPD_395
  Mrv1822 09091914012D          

 25 26  0  0  0  0            999 V2000
    5.0013    0.4125    0.0000 C   0  0  0  0  0  0  0  0  0  0  0  0
    4.2868    0.0000    0.0000 C   0  0  0  0  0  0  0  0  0  0  0  0
    3.8743    0.7145    0.0000 C   0  0  0  0  0  0  0  0  0  0  0  0
    4.6993   -0.7145    0.0000 C   0  0  0  0  0  0  0  0  0  0  0  0
    3.5724   -0.4125    0.0000 O   0  0  0  0  0  0  0  0  0  0  0  0
    3.5724   -1.2375    0.0000 C   0  0  0  0  0  0  0  0  0  0  0  0
    4.2868   -1.6500    0.0000 O   0  0  0  0  0  0  0  0  0  0  0  0
    2.8579   -1.6500    0.0000 N   0  0  0  0  0  0  0  0  0  0  0  0
    2.8579   -2.4750    0.0000 C   0  0  0  0  0  0  0  0  0  0  0  0
    2.1434   -2.8875    0.0000 C   0  0  0  0  0  0  0  0  0  0  0  0
    1.4289   -2.4750    0.0000 N   0  0  0  0  0  0  0  0  0  0  0  0
    1.4289   -1.6500    0.0000 C   0  0  0  0  0  0  0  0  0  0  0  0
    2.1434   -1.2375    0.0000 C   0  0  0  0  0  0  0  0  0  0  0  0
    1.7561   -0.5091    0.0000 C   0  0  0  0  0  0  0  0  0  0  0  0
    2.5307   -0.5091    0.0000 C   0  0  0  0  0  0  0  0  0  0  0  0
    0.7145   -2.8875    0.0000 C   0  0  0  0  0  0  0  0  0  0  0  0
    0.7145   -3.7125    0.0000 O   0  0  0  0  0  0  0  0  0  0  0  0
    0.0000   -2.4750    0.0000 C   0  0  0  0  0  0  0  0  0  0  0  0
   -0.7145   -2.8875    0.0000 C   0  0  0  0  0  0  0  0  0  0  0  0
   -0.7145   -3.7125    0.0000 Br  0  0  0  0  0  0  0  0  0  0  0  0
   -1.4289   -2.4750    0.0000 C   0  0  0  0  0  0  0  0  0  0  0  0
   -1.4289   -1.6500    0.0000 N   0  0  0  0  0  0  0  0  0  0  0  0
   -0.7145   -1.2375    0.0000 C   0  0  0  0  0  0  0  0  0  0  0  0
    0.0000   -1.6500    0.0000 C   0  0  0  0  0  0  0  0  0  0  0  0
    0.7145   -1.2375    0.0000 Br  0  0  0  0  0  0  0  0  0  0  0  0
  1  2  1  0  0  0  0
  2  3  1  0  0  0  0
  2  4  1  0  0  0  0
  2  5  1  0  0  0  0
  5  6  1  0  0  0  0
  6  7  2  0  0  0  0
  6  8  1  0  0  0  0
  8  9  1  0  0  0  0
  9 10  1  0  0  0  0
 10 11  1  0  0  0  0
 11 12  1  0  0  0  0
 12 13  1  0  0  0  0
  8 13  1  0  0  0  0
 13 14  1  0  0  0  0
 13 15  1  0  0  0  0
 11 16  1  0  0  0  0
 16 17  2  0  0  0  0
 16 18  1  0  0  0  0
 18 19  2  0  0  0  0
 19 20  1  0  0  0  0
 19 21  1  0  0  0  0
 21 22  2  0  0  0  0
 22 23  1  0  0  0  0
 23 24  2  0  0  0  0
 18 24  1  0  0  0  0
 24 25  1  0  0  0  0
M  END
> <ID>
CPD_395

$$$$
CPD_400
  Mrv1822 09091914012D          

 23 24  0  0  0  0            999 V2000
    2.0367   -0.4741    0.0000 C   0  0  0  0  0  0  0  0  0  0  0  0
    2.0367   -1.2991    0.0000 C   0  0  0  0  0  0  0  0  0  0  0  0
    2.7041   -1.7840    0.0000 N   0  0  0  0  0  0  0  0  0  0  0  0
    2.4492   -2.5687    0.0000 N   0  0  0  0  0  0  0  0  0  0  0  0
    1.6242   -2.5687    0.0000 C   0  0  0  0  0  0  0  0  0  0  0  0
    1.3693   -1.7840    0.0000 C   0  0  0  0  0  0  0  0  0  0  0  0
    0.5846   -1.5291    0.0000 C   0  0  0  0  0  0  0  0  0  0  0  0
   -0.0284   -2.0811    0.0000 O   0  0  0  0  0  0  0  0  0  0  0  0
    0.4131   -0.7221    0.0000 N   0  0  0  0  0  0  0  0  0  0  0  0
   -0.3715   -0.4672    0.0000 C   0  0  0  0  0  0  0  0  0  0  0  0
   -0.5430    0.3398    0.0000 C   0  0  0  0  0  0  0  0  0  0  0  0
    0.0701    0.8918    0.0000 N   0  0  0  0  0  0  0  0  0  0  0  0
   -0.1015    1.6988    0.0000 C   0  0  0  0  0  0  0  0  0  0  0  0
   -0.8861    1.9537    0.0000 O   0  0  0  0  0  0  0  0  0  0  0  0
    0.5116    2.2508    0.0000 O   0  0  0  0  0  0  0  0  0  0  0  0
    0.3401    3.0578    0.0000 C   0  0  0  0  0  0  0  0  0  0  0  0
    0.1686    3.8648    0.0000 C   0  0  0  0  0  0  0  0  0  0  0  0
    1.1471    3.2293    0.0000 C   0  0  0  0  0  0  0  0  0  0  0  0
   -0.4669    2.8863    0.0000 C   0  0  0  0  0  0  0  0  0  0  0  0
    0.8547    0.6369    0.0000 C   0  0  0  0  0  0  0  0  0  0  0  0
    0.9695    1.4539    0.0000 C   0  0  0  0  0  0  0  0  0  0  0  0
    1.6792    0.6657    0.0000 C   0  0  0  0  0  0  0  0  0  0  0  0
    1.0262   -0.1701    0.0000 C   0  0  0  0  0  0  0  0  0  0  0  0
  1  2  1  0  0  0  0
  2  3  2  0  0  0  0
  3  4  1  0  0  0  0
  4  5  1  0  0  0  0
  5  6  2  0  0  0  0
  2  6  1  0  0  0  0
  6  7  1  0  0  0  0
  7  8  2  0  0  0  0
  7  9  1  0  0  0  0
  9 10  1  0  0  0  0
 10 11  1  0  0  0  0
 11 12  1  0  0  0  0
 12 13  1  0  0  0  0
 13 14  2  0  0  0  0
 13 15  1  0  0  0  0
 15 16  1  0  0  0  0
 16 17  1  0  0  0  0
 16 18  1  0  0  0  0
 16 19  1  0  0  0  0
 12 20  1  0  0  0  0
 20 21  1  0  0  0  0
 20 22  1  0  0  0  0
 20 23  1  0  0  0  0
  9 23  1  0  0  0  0
M  END
> <ID>
CPD_400

$$$$
CPD_405
  Mrv1822 09091914012D          

 23 25  0  0  0  0            999 V2000
   -7.1547   -0.7170    0.0000 C   0  0  0  0  0  0  0  0  0  0  0  0
   -6.3342   -0.6308    0.0000 C   0  0  0  0  0  0  0  0  0  0  0  0
   -6.2480   -1.4513    0.0000 C   0  0  0  0  0  0  0  0  0  0  0  0
   -6.4204    0.1897    0.0000 C   0  0  0  0  0  0  0  0  0  0  0  0
   -5.5137   -0.5445    0.0000 C   0  0  0  0  0  0  0  0  0  0  0  0
   -5.1012    0.1699    0.0000 C   0  0  0  0  0  0  0  0  0  0  0  0
   -4.2942   -0.0016    0.0000 C   0  0  0  0  0  0  0  0  0  0  0  0
   -4.2080   -0.8221    0.0000 C   0  0  0  0  0  0  0  0  0  0  0  0
   -4.9617   -1.1576    0.0000 S   0  0  0  0  0  0  0  0  0  0  0  0
   -3.4935   -1.2346    0.0000 C   0  0  0  0  0  0  0  0  0  0  0  0
   -3.4935   -2.0596    0.0000 O   0  0  0  0  0  0  0  0  0  0  0  0
   -2.7791   -0.8221    0.0000 N   0  0  0  0  0  0  0  0  0  0  0  0
   -2.0646   -1.2346    0.0000 C   0  0  0  0  0  0  0  0  0  0  0  0
   -1.3501   -0.8221    0.0000 C   0  0  0  0  0  0  0  0  0  0  0  0
   -0.6357   -1.2346    0.0000 C   0  0  0  0  0  0  0  0  0  0  0  0
   -0.5494   -2.0551    0.0000 N   0  0  0  0  0  0  0  0  0  0  0  0
    0.2575   -2.2266    0.0000 N   0  0  0  0  0  0  0  0  0  0  0  0
    0.6700   -1.5121    0.0000 C   0  0  0  0  0  0  0  0  0  0  0  0
    0.1180   -0.8990    0.0000 C   0  0  0  0  0  0  0  0  0  0  0  0
    0.3730   -0.1144    0.0000 C   0  0  0  0  0  0  0  0  0  0  0  0
    1.1799    0.0571    0.0000 C   0  0  0  0  0  0  0  0  0  0  0  0
    1.7320   -0.5560    0.0000 C   0  0  0  0  0  0  0  0  0  0  0  0
    1.4770   -1.3406    0.0000 C   0  0  0  0  0  0  0  0  0  0  0  0
  1  2  1  0  0  0  0
  2  3  1  0  0  0  0
  2  4  1  0  0  0  0
  2  5  1  0  0  0  0
  5  6  2  0  0  0  0
  6  7  1  0  0  0  0
  7  8  2  0  0  0  0
  8  9  1  0  0  0  0
  5  9  1  0  0  0  0
  8 10  1  0  0  0  0
 10 11  2  0  0  0  0
 10 12  1  0  0  0  0
 12 13  1  0  0  0  0
 13 14  1  0  0  0  0
 14 15  1  0  0  0  0
 15 16  2  0  0  0  0
 16 17  1  0  0  0  0
 17 18  1  0  0  0  0
 18 19  2  0  0  0  0
 15 19  1  0  0  0  0
 19 20  1  0  0  0  0
 20 21  2  0  0  0  0
 21 22  1  0  0  0  0
 22 23  2  0  0  0  0
 18 23  1  0  0  0  0
M  END
> <ID>
CPD_405

$$$$
CPD_410
  Mrv1822 09091914012D          

 28 30  0  0  0  0            999 V2000
   -8.4249   -2.9136    0.0000 C   0  0  0  0  0  0  0  0  0  0  0  0
   -7.7104   -2.5011    0.0000 C   0  0  0  0  0  0  0  0  0  0  0  0
   -6.9960   -2.9136    0.0000 O   0  0  0  0  0  0  0  0  0  0  0  0
   -6.2815   -2.5011    0.0000 C   0  0  0  0  0  0  0  0  0  0  0  0
   -6.2815   -1.6761    0.0000 C   0  0  0  0  0  0  0  0  0  0  0  0
   -5.5670   -1.2636    0.0000 C   0  0  0  0  0  0  0  0  0  0  0  0
   -4.8525   -1.6761    0.0000 C   0  0  0  0  0  0  0  0  0  0  0  0
   -4.1381   -1.2636    0.0000 C   0  0  0  0  0  0  0  0  0  0  0  0
   -3.4236   -1.6761    0.0000 C   0  0  0  0  0  0  0  0  0  0  0  0
   -3.4236   -2.5011    0.0000 O   0  0  0  0  0  0  0  0  0  0  0  0
   -2.7091   -1.2636    0.0000 N   0  0  0  0  0  0  0  0  0  0  0  0
   -1.9947   -1.6761    0.0000 C   0  0  0  0  0  0  0  0  0  0  0  0
   -1.2802   -1.2636    0.0000 C   0  0  0  0  0  0  0  0  0  0  0  0
   -0.5657   -1.6761    0.0000 C   0  0  0  0  0  0  0  0  0  0  0  0
   -0.4795   -2.4966    0.0000 N   0  0  0  0  0  0  0  0  0  0  0  0
    0.3275   -2.6681    0.0000 N   0  0  0  0  0  0  0  0  0  0  0  0
    0.7400   -1.9537    0.0000 C   0  0  0  0  0  0  0  0  0  0  0  0
    0.1880   -1.3406    0.0000 C   0  0  0  0  0  0  0  0  0  0  0  0
    0.4429   -0.5560    0.0000 C   0  0  0  0  0  0  0  0  0  0  0  0
    1.2499   -0.3844    0.0000 C   0  0  0  0  0  0  0  0  0  0  0  0
    1.8019   -0.9975    0.0000 C   0  0  0  0  0  0  0  0  0  0  0  0
    1.5470   -1.7821    0.0000 C   0  0  0  0  0  0  0  0  0  0  0  0
   -4.8525   -2.5011    0.0000 C   0  0  0  0  0  0  0  0  0  0  0  0
   -5.5670   -2.9136    0.0000 C   0  0  0  0  0  0  0  0  0  0  0  0
   -5.5670   -3.7386    0.0000 C   0  0  0  0  0  0  0  0  0  0  0  0
   -5.5670   -4.5636    0.0000 F   0  0  0  0  0  0  0  0  0  0  0  0
   -6.3920   -3.7386    0.0000 F   0  0  0  0  0  0  0  0  0  0  0  0
   -4.7420   -3.7386    0.0000 F   0  0  0  0  0  0  0  0  0  0  0  0
  1  2  1  0  0  0  0
  2  3  1  0  0  0  0
  3  4  1  0  0  0  0
  4  5  2  0  0  0  0
  5  6  1  0  0  0  0
  6  7  2  0  0  0  0
  7  8  1  0  0  0  0
  8  9  1  0  0  0  0
  9 10  2  0  0  0  0
  9 11  1  0  0  0  0
 11 12  1  0  0  0  0
 12 13  1  0  0  0  0
 13 14  1  0  0  0  0
 14 15  2  0  0  0  0
 15 16  1  0  0  0  0
 16 17  1  0  0  0  0
 17 18  2  0  0  0  0
 14 18  1  0  0  0  0
 18 19  1  0  0  0  0
 19 20  2  0  0  0  0
 20 21  1  0  0  0  0
 21 22  2  0  0  0  0
 17 22  1  0  0  0  0
  7 23  1  0  0  0  0
 23 24  2  0  0  0  0
  4 24  1  0  0  0  0
 24 25  1  0  0  0  0
 25 26  1  0  0  0  0
 25 27  1  0  0  0  0
 25 28  1  0  0  0  0
M  END
> <ID>
CPD_410

$$$$
CPD_415
  Mrv1822 09091914012D          

 28 32  0  0  0  0            999 V2000
    1.8366   -1.3283    0.0000 O   0  0  0  0  0  0  0  0  0  0  0  0
    2.6435   -1.1567    0.0000 C   0  0  0  0  0  0  0  0  0  0  0  0
    3.1956   -1.7698    0.0000 N   0  0  0  0  0  0  0  0  0  0  0  0
    2.9406   -2.5545    0.0000 C   0  0  0  0  0  0  0  0  0  0  0  0
    3.4927   -3.1676    0.0000 C   0  0  0  0  0  0  0  0  0  0  0  0
    3.2377   -3.9522    0.0000 C   0  0  0  0  0  0  0  0  0  0  0  0
    2.4531   -4.2071    0.0000 N   0  0  0  0  0  0  0  0  0  0  0  0
    2.4531   -5.0321    0.0000 N   0  0  0  0  0  0  0  0  0  0  0  0
    3.2377   -5.2871    0.0000 C   0  0  0  0  0  0  0  0  0  0  0  0
    3.7226   -4.6196    0.0000 C   0  0  0  0  0  0  0  0  0  0  0  0
    4.5431   -4.7059    0.0000 C   0  0  0  0  0  0  0  0  0  0  0  0
    4.8787   -5.4595    0.0000 C   0  0  0  0  0  0  0  0  0  0  0  0
    4.3938   -6.1270    0.0000 C   0  0  0  0  0  0  0  0  0  0  0  0
    3.5733   -6.0407    0.0000 C   0  0  0  0  0  0  0  0  0  0  0  0
    2.8985   -0.3721    0.0000 C   0  0  0  0  0  0  0  0  0  0  0  0
    2.3464    0.2410    0.0000 C   0  0  0  0  0  0  0  0  0  0  0  0
    2.6014    1.0256    0.0000 C   0  0  0  0  0  0  0  0  0  0  0  0
    3.4084    1.1971    0.0000 C   0  0  0  0  0  0  0  0  0  0  0  0
    3.9604    0.5840    0.0000 C   0  0  0  0  0  0  0  0  0  0  0  0
    3.7054   -0.2006    0.0000 C   0  0  0  0  0  0  0  0  0  0  0  0
    1.9339    1.5105    0.0000 C   0  0  0  0  0  0  0  0  0  0  0  0
    1.9339    2.3355    0.0000 O   0  0  0  0  0  0  0  0  0  0  0  0
    1.2665    1.0256    0.0000 C   0  0  0  0  0  0  0  0  0  0  0  0
    1.5214    0.2410    0.0000 C   0  0  0  0  0  0  0  0  0  0  0  0
    0.9694   -0.3721    0.0000 C   0  0  0  0  0  0  0  0  0  0  0  0
    0.1624   -0.2006    0.0000 C   0  0  0  0  0  0  0  0  0  0  0  0
   -0.0925    0.5840    0.0000 C   0  0  0  0  0  0  0  0  0  0  0  0
    0.4595    1.1971    0.0000 C   0  0  0  0  0  0  0  0  0  0  0  0
  1  2  2  0  0  0  0
  2  3  1  0  0  0  0
  3  4  1  0  0  0  0
  4  5  1  0  0  0  0
  5  6  1  0  0  0  0
  6  7  2  0  0  0  0
  7  8  1  0  0  0  0
  8  9  1  0  0  0  0
  9 10  2  0  0  0  0
  6 10  1  0  0  0  0
 10 11  1  0  0  0  0
 11 12  2  0  0  0  0
 12 13  1  0  0  0  0
 13 14  2  0  0  0  0
  9 14  1  0  0  0  0
  2 15  1  0  0  0  0
 15 16  2  0  0  0  0
 16 17  1  0  0  0  0
 17 18  2  0  0  0  0
 18 19  1  0  0  0  0
 19 20  2  0  0  0  0
 15 20  1  0  0  0  0
 17 21  1  0  0  0  0
 21 22  2  0  0  0  0
 21 23  1  0  0  0  0
 23 24  2  0  0  0  0
 16 24  1  0  0  0  0
 24 25  1  0  0  0  0
 25 26  2  0  0  0  0
 26 27  1  0  0  0  0
 27 28  2  0  0  0  0
 23 28  1  0  0  0  0
M  END
> <ID>
CPD_415

$$$$
CPD_420
  Mrv1822 09091914012D          

 26 28  0  0  0  0            999 V2000
   -3.0849   -3.1291    0.0000 O   0  0  0  0  0  0  0  0  0  0  0  0
   -3.8951   -3.2850    0.0000 C   0  0  0  0  0  0  0  0  0  0  0  0
   -4.1651   -4.0645    0.0000 O   0  0  0  0  0  0  0  0  0  0  0  0
   -4.4352   -2.6614    0.0000 C   0  0  0  0  0  0  0  0  0  0  0  0
   -4.1651   -1.8818    0.0000 C   0  0  0  0  0  0  0  0  0  0  0  0
   -3.3550   -1.7259    0.0000 C   0  0  0  0  0  0  0  0  0  0  0  0
   -2.8149   -2.3495    0.0000 C   0  0  0  0  0  0  0  0  0  0  0  0
   -2.5752   -3.1389    0.0000 O   0  0  0  0  0  0  0  0  0  0  0  0
   -2.0048   -2.1936    0.0000 N   0  0  0  0  0  0  0  0  0  0  0  0
   -1.4647   -2.8173    0.0000 C   0  0  0  0  0  0  0  0  0  0  0  0
   -0.6545   -2.6614    0.0000 C   0  0  0  0  0  0  0  0  0  0  0  0
   -0.1145   -3.2850    0.0000 C   0  0  0  0  0  0  0  0  0  0  0  0
   -0.3015   -4.0885    0.0000 N   0  0  0  0  0  0  0  0  0  0  0  0
    0.4048   -4.5147    0.0000 N   0  0  0  0  0  0  0  0  0  0  0  0
    1.0285   -3.9746    0.0000 C   0  0  0  0  0  0  0  0  0  0  0  0
    0.7075   -3.2146    0.0000 C   0  0  0  0  0  0  0  0  0  0  0  0
    1.2053   -2.5567    0.0000 C   0  0  0  0  0  0  0  0  0  0  0  0
    2.0239   -2.6587    0.0000 C   0  0  0  0  0  0  0  0  0  0  0  0
    2.3449   -3.4188    0.0000 C   0  0  0  0  0  0  0  0  0  0  0  0
    1.8471   -4.0767    0.0000 C   0  0  0  0  0  0  0  0  0  0  0  0
   -4.7052   -1.2582    0.0000 C   0  0  0  0  0  0  0  0  0  0  0  0
   -5.5153   -1.4141    0.0000 C   0  0  0  0  0  0  0  0  0  0  0  0
   -6.0554   -0.7904    0.0000 C   0  0  0  0  0  0  0  0  0  0  0  0
   -5.7854   -0.0109    0.0000 C   0  0  0  0  0  0  0  0  0  0  0  0
   -4.9753    0.1450    0.0000 C   0  0  0  0  0  0  0  0  0  0  0  0
   -4.4352   -0.4786    0.0000 C   0  0  0  0  0  0  0  0  0  0  0  0
  1  2  1  0  0  0  0
  2  3  2  0  0  0  0
  2  4  1  0  0  0  0
  4  5  1  0  0  0  0
  5  6  1  0  0  0  0
  6  7  1  0  0  0  0
  7  8  2  0  0  0  0
  7  9  1  0  0  0  0
  9 10  1  0  0  0  0
 10 11  1  0  0  0  0
 11 12  1  0  0  0  0
 12 13  2  0  0  0  0
 13 14  1  0  0  0  0
 14 15  1  0  0  0  0
 15 16  2  0  0  0  0
 12 16  1  0  0  0  0
 16 17  1  0  0  0  0
 17 18  2  0  0  0  0
 18 19  1  0  0  0  0
 19 20  2  0  0  0  0
 15 20  1  0  0  0  0
  5 21  1  0  0  0  0
 21 22  2  0  0  0  0
 22 23  1  0  0  0  0
 23 24  2  0  0  0  0
 24 25  1  0  0  0  0
 25 26  2  0  0  0  0
 21 26  1  0  0  0  0
M  END
> <ID>
CPD_420

$$$$
CPD_425
  Mrv1822 09091914012D          

 27 30  0  0  1  0            999 V2000
   -6.0117    0.1709    0.0000 F   0  0  0  0  0  0  0  0  0  0  0  0
   -5.2972    0.5834    0.0000 C   0  0  0  0  0  0  0  0  0  0  0  0
   -4.8847   -0.1311    0.0000 F   0  0  0  0  0  0  0  0  0  0  0  0
   -5.7097    1.2978    0.0000 F   0  0  0  0  0  0  0  0  0  0  0  0
   -4.5828    0.9959    0.0000 C   0  0  0  0  0  0  0  0  0  0  0  0
   -4.5828    1.8209    0.0000 C   0  0  0  0  0  0  0  0  0  0  0  0
   -3.8683    2.2334    0.0000 N   0  0  0  0  0  0  0  0  0  0  0  0
   -3.1538    1.8209    0.0000 C   0  0  0  0  0  0  0  0  0  0  0  0
   -2.4394    2.2334    0.0000 O   0  0  0  0  0  0  0  0  0  0  0  0
   -1.7249    1.8209    0.0000 C   0  0  0  0  0  0  0  0  0  0  0  0
   -0.9280    2.0344    0.0000 C   0  0  0  0  0  0  0  0  0  0  0  0
   -0.7145    1.2375    0.0000 N   0  0  0  0  0  0  0  0  0  0  0  0
   -1.5114    1.0240    0.0000 C   0  0  0  0  0  0  0  0  0  0  0  0
    0.0000    0.8250    0.0000 C   0  0  0  0  0  0  0  0  0  0  0  0
    0.7145    1.2375    0.0000 O   0  0  0  0  0  0  0  0  0  0  0  0
    0.0000   -0.0000    0.0000 C   0  0  2  0  0  0  0  0  0  0  0  0
   -0.7145   -0.4125    0.0000 N   0  0  0  0  0  0  0  0  0  0  0  0
   -0.7145   -1.2375    0.0000 C   0  0  0  0  0  0  0  0  0  0  0  0
    0.0000   -1.6500    0.0000 C   0  0  0  0  0  0  0  0  0  0  0  0
    0.7145   -1.2375    0.0000 C   0  0  0  0  0  0  0  0  0  0  0  0
    0.7145   -0.4125    0.0000 C   0  0  0  0  0  0  0  0  0  0  0  0
    1.4289   -0.0000    0.0000 C   0  0  0  0  0  0  0  0  0  0  0  0
    2.1434   -0.4125    0.0000 C   0  0  0  0  0  0  0  0  0  0  0  0
    2.1434   -1.2375    0.0000 C   0  0  0  0  0  0  0  0  0  0  0  0
    1.4289   -1.6500    0.0000 C   0  0  0  0  0  0  0  0  0  0  0  0
   -3.1538    0.9959    0.0000 C   0  0  0  0  0  0  0  0  0  0  0  0
   -3.8683    0.5834    0.0000 C   0  0  0  0  0  0  0  0  0  0  0  0
  1  2  1  0  0  0  0
  2  3  1  0  0  0  0
  2  4  1  0  0  0  0
  2  5  1  0  0  0  0
  5  6  2  0  0  0  0
  6  7  1  0  0  0  0
  7  8  2  0  0  0  0
  8  9  1  0  0  0  0
  9 10  1  0  0  0  0
 10 11  1  0  0  0  0
 11 12  1  0  0  0  0
 12 13  1  0  0  0  0
 10 13  1  0  0  0  0
 12 14  1  0  0  0  0
 14 15  2  0  0  0  0
 16 14  1  1  0  0  0
 16 17  1  0  0  0  0
 17 18  1  0  0  0  0
 18 19  1  0  0  0  0
 19 20  1  0  0  0  0
 20 21  2  0  0  0  0
 16 21  1  0  0  0  0
 21 22  1  0  0  0  0
 22 23  2  0  0  0  0
 23 24  1  0  0  0  0
 24 25  2  0  0  0  0
 20 25  1  0  0  0  0
  8 26  1  0  0  0  0
 26 27  2  0  0  0  0
  5 27  1  0  0  0  0
M  END
> <ID>
CPD_425

$$$$
CPD_430
  Mrv1822 09091914012D          

 28 31  0  0  0  0            999 V2000
    0.8838   -2.1500    0.0000 N   0  0  0  0  0  0  0  0  0  0  0  0
    1.1387   -1.3654    0.0000 C   0  0  0  0  0  0  0  0  0  0  0  0
    0.6538   -0.6979    0.0000 C   0  0  0  0  0  0  0  0  0  0  0  0
    1.1387   -0.0305    0.0000 S   0  0  0  0  0  0  0  0  0  0  0  0
    1.9233   -0.2854    0.0000 C   0  0  0  0  0  0  0  0  0  0  0  0
    2.6378    0.1271    0.0000 C   0  0  0  0  0  0  0  0  0  0  0  0
    3.3523   -0.2854    0.0000 C   0  0  0  0  0  0  0  0  0  0  0  0
    3.3523   -1.1104    0.0000 C   0  0  0  0  0  0  0  0  0  0  0  0
    2.6378   -1.5229    0.0000 C   0  0  0  0  0  0  0  0  0  0  0  0
    2.6378   -2.3479    0.0000 F   0  0  0  0  0  0  0  0  0  0  0  0
    1.9233   -1.1104    0.0000 C   0  0  0  0  0  0  0  0  0  0  0  0
   -0.1712   -0.6979    0.0000 C   0  0  0  0  0  0  0  0  0  0  0  0
   -0.5837   -1.4124    0.0000 O   0  0  0  0  0  0  0  0  0  0  0  0
   -0.5837    0.0165    0.0000 N   0  0  0  0  0  0  0  0  0  0  0  0
   -1.3806    0.2301    0.0000 C   0  0  0  0  0  0  0  0  0  0  0  0
   -1.1671    1.0269    0.0000 C   0  0  0  0  0  0  0  0  0  0  0  0
   -0.3702    0.8134    0.0000 C   0  0  0  0  0  0  0  0  0  0  0  0
   -1.5796    1.7414    0.0000 O   0  0  0  0  0  0  0  0  0  0  0  0
   -1.1671    2.4559    0.0000 C   0  0  0  0  0  0  0  0  0  0  0  0
   -1.5796    3.1704    0.0000 N   0  0  0  0  0  0  0  0  0  0  0  0
   -1.1671    3.8848    0.0000 C   0  0  0  0  0  0  0  0  0  0  0  0
   -0.3421    3.8848    0.0000 C   0  0  0  0  0  0  0  0  0  0  0  0
    0.0704    3.1704    0.0000 C   0  0  0  0  0  0  0  0  0  0  0  0
   -0.3421    2.4559    0.0000 C   0  0  0  0  0  0  0  0  0  0  0  0
    0.0704    4.5993    0.0000 C   0  0  0  0  0  0  0  0  0  0  0  0
    0.4829    5.3138    0.0000 F   0  0  0  0  0  0  0  0  0  0  0  0
    0.7849    4.1868    0.0000 F   0  0  0  0  0  0  0  0  0  0  0  0
   -0.6440    5.0118    0.0000 F   0  0  0  0  0  0  0  0  0  0  0  0
  1  2  1  0  0  0  0
  2  3  2  0  0  0  0
  3  4  1  0  0  0  0
  4  5  1  0  0  0  0
  5  6  2  0  0  0  0
  6  7  1  0  0  0  0
  7  8  2  0  0  0  0
  8  9  1  0  0  0  0
  9 10  1  0  0  0  0
  9 11  2  0  0  0  0
  2 11  1  0  0  0  0
  5 11  1  0  0  0  0
  3 12  1  0  0  0  0
 12 13  2  0  0  0  0
 12 14  1  0  0  0  0
 14 15  1  0  0  0  0
 15 16  1  0  0  0  0
 16 17  1  0  0  0  0
 14 17  1  0  0  0  0
 16 18  1  0  0  0  0
 18 19  1  0  0  0  0
 19 20  2  0  0  0  0
 20 21  1  0  0  0  0
 21 22  2  0  0  0  0
 22 23  1  0  0  0  0
 23 24  2  0  0  0  0
 19 24  1  0  0  0  0
 22 25  1  0  0  0  0
 25 26  1  0  0  0  0
 25 27  1  0  0  0  0
 25 28  1  0  0  0  0
M  END
> <ID>
CPD_430

$$$$
CPD_435
  Mrv1822 09091914012D          

 28 31  0  0  0  0            999 V2000
   -4.5062    1.1802    0.0000 F   0  0  0  0  0  0  0  0  0  0  0  0
   -3.7917    0.7677    0.0000 C   0  0  0  0  0  0  0  0  0  0  0  0
   -4.2042    0.0532    0.0000 F   0  0  0  0  0  0  0  0  0  0  0  0
   -3.3792    1.4822    0.0000 F   0  0  0  0  0  0  0  0  0  0  0  0
   -3.0772    0.3552    0.0000 C   0  0  0  0  0  0  0  0  0  0  0  0
   -2.3628    0.7677    0.0000 C   0  0  0  0  0  0  0  0  0  0  0  0
   -1.6483    0.3552    0.0000 N   0  0  0  0  0  0  0  0  0  0  0  0
   -1.6483   -0.4698    0.0000 C   0  0  0  0  0  0  0  0  0  0  0  0
   -0.9338   -0.8823    0.0000 O   0  0  0  0  0  0  0  0  0  0  0  0
   -0.9338   -1.7073    0.0000 C   0  0  0  0  0  0  0  0  0  0  0  0
   -0.3505   -2.2907    0.0000 C   0  0  0  0  0  0  0  0  0  0  0  0
   -0.9338   -2.8740    0.0000 N   0  0  0  0  0  0  0  0  0  0  0  0
   -1.5172   -2.2907    0.0000 C   0  0  0  0  0  0  0  0  0  0  0  0
   -0.9338   -3.6990    0.0000 C   0  0  0  0  0  0  0  0  0  0  0  0
   -0.2194   -4.1115    0.0000 O   0  0  0  0  0  0  0  0  0  0  0  0
   -1.6483   -4.1115    0.0000 C   0  0  0  0  0  0  0  0  0  0  0  0
   -2.2614   -4.6635    0.0000 C   0  0  0  0  0  0  0  0  0  0  0  0
   -2.9759   -4.2510    0.0000 C   0  0  0  0  0  0  0  0  0  0  0  0
   -2.8043   -3.4441    0.0000 C   0  0  0  0  0  0  0  0  0  0  0  0
   -1.9839   -3.3578    0.0000 N   0  0  0  0  0  0  0  0  0  0  0  0
   -1.1634   -4.7790    0.0000 C   0  0  0  0  0  0  0  0  0  0  0  0
   -0.3429   -4.6927    0.0000 C   0  0  0  0  0  0  0  0  0  0  0  0
    0.1420   -5.3602    0.0000 C   0  0  0  0  0  0  0  0  0  0  0  0
   -0.1935   -6.1138    0.0000 C   0  0  0  0  0  0  0  0  0  0  0  0
   -1.0140   -6.2001    0.0000 C   0  0  0  0  0  0  0  0  0  0  0  0
   -1.4989   -5.5326    0.0000 C   0  0  0  0  0  0  0  0  0  0  0  0
   -2.3628   -0.8823    0.0000 C   0  0  0  0  0  0  0  0  0  0  0  0
   -3.0772   -0.4698    0.0000 C   0  0  0  0  0  0  0  0  0  0  0  0
  1  2  1  0  0  0  0
  2  3  1  0  0  0  0
  2  4  1  0  0  0  0
  2  5  1  0  0  0  0
  5  6  2  0  0  0  0
  6  7  1  0  0  0  0
  7  8  2  0  0  0  0
  8  9  1  0  0  0  0
  9 10  1  0  0  0  0
 10 11  1  0  0  0  0
 11 12  1  0  0  0  0
 12 13  1  0  0  0  0
 10 13  1  0  0  0  0
 12 14  1  0  0  0  0
 14 15  2  0  0  0  0
 14 16  1  0  0  0  0
 16 17  1  0  0  0  0
 17 18  1  0  0  0  0
 18 19  1  0  0  0  0
 19 20  1  0  0  0  0
 16 20  1  0  0  0  0
 16 21  1  0  0  0  0
 21 22  2  0  0  0  0
 22 23  1  0  0  0  0
 23 24  2  0  0  0  0
 24 25  1  0  0  0  0
 25 26  2  0  0  0  0
 21 26  1  0  0  0  0
  8 27  1  0  0  0  0
 27 28  2  0  0  0  0
  5 28  1  0  0  0  0
M  END
> <ID>
CPD_435

$$$$
CPD_440
  Mrv1822 09091914012D          

 29 32  0  0  0  0            999 V2000
   -4.6734    0.3930    0.0000 C   0  0  0  0  0  0  0  0  0  0  0  0
   -3.8529    0.4792    0.0000 C   0  0  0  0  0  0  0  0  0  0  0  0
   -3.5173    1.2329    0.0000 C   0  0  0  0  0  0  0  0  0  0  0  0
   -2.6968    1.3191    0.0000 C   0  0  0  0  0  0  0  0  0  0  0  0
   -2.3613    2.0728    0.0000 N   0  0  0  0  0  0  0  0  0  0  0  0
   -2.2119    0.6517    0.0000 C   0  0  0  0  0  0  0  0  0  0  0  0
   -1.3914    0.7379    0.0000 O   0  0  0  0  0  0  0  0  0  0  0  0
   -0.9065    0.0705    0.0000 C   0  0  0  0  0  0  0  0  0  0  0  0
   -0.0860    0.1567    0.0000 C   0  0  0  0  0  0  0  0  0  0  0  0
    0.3265    0.8712    0.0000 C   0  0  0  0  0  0  0  0  0  0  0  0
    1.1334    0.6997    0.0000 C   0  0  0  0  0  0  0  0  0  0  0  0
    1.2197   -0.1208    0.0000 C   0  0  0  0  0  0  0  0  0  0  0  0
    0.4660   -0.4564    0.0000 O   0  0  0  0  0  0  0  0  0  0  0  0
    1.9341   -0.5333    0.0000 C   0  0  0  0  0  0  0  0  0  0  0  0
    2.6486   -0.1208    0.0000 O   0  0  0  0  0  0  0  0  0  0  0  0
    1.9341   -1.3583    0.0000 N   0  0  0  0  0  0  0  0  0  0  0  0
    2.5175   -1.9417    0.0000 C   0  0  0  0  0  0  0  0  0  0  0  0
    1.9341   -2.5250    0.0000 C   0  0  0  0  0  0  0  0  0  0  0  0
    1.3508   -1.9417    0.0000 C   0  0  0  0  0  0  0  0  0  0  0  0
    1.9341   -3.3500    0.0000 C   0  0  0  0  0  0  0  0  0  0  0  0
    2.6486   -3.7625    0.0000 O   0  0  0  0  0  0  0  0  0  0  0  0
    1.2197   -3.7625    0.0000 N   0  0  0  0  0  0  0  0  0  0  0  0
    1.2197   -4.5875    0.0000 C   0  0  0  0  0  0  0  0  0  0  0  0
    0.5052   -5.0000    0.0000 C   0  0  0  0  0  0  0  0  0  0  0  0
   -0.2093   -4.5875    0.0000 O   0  0  0  0  0  0  0  0  0  0  0  0
   -0.2093   -3.7625    0.0000 C   0  0  0  0  0  0  0  0  0  0  0  0
    0.5052   -3.3500    0.0000 C   0  0  0  0  0  0  0  0  0  0  0  0
   -2.5475   -0.1020    0.0000 C   0  0  0  0  0  0  0  0  0  0  0  0
   -3.3680   -0.1882    0.0000 C   0  0  0  0  0  0  0  0  0  0  0  0
  1  2  1  0  0  0  0
  2  3  2  0  0  0  0
  3  4  1  0  0  0  0
  4  5  1  0  0  0  0
  4  6  2  0  0  0  0
  6  7  1  0  0  0  0
  7  8  1  0  0  0  0
  8  9  1  0  0  0  0
  9 10  2  0  0  0  0
 10 11  1  0  0  0  0
 11 12  2  0  0  0  0
 12 13  1  0  0  0  0
  9 13  1  0  0  0  0
 12 14  1  0  0  0  0
 14 15  2  0  0  0  0
 14 16  1  0  0  0  0
 16 17  1  0  0  0  0
 17 18  1  0  0  0  0
 18 19  1  0  0  0  0
 16 19  1  0  0  0  0
 18 20  1  0  0  0  0
 20 21  2  0  0  0  0
 20 22  1  0  0  0  0
 22 23  1  0  0  0  0
 23 24  1  0  0  0  0
 24 25  1  0  0  0  0
 25 26  1  0  0  0  0
 26 27  1  0  0  0  0
 22 27  1  0  0  0  0
  6 28  1  0  0  0  0
 28 29  2  0  0  0  0
  2 29  1  0  0  0  0
M  END
> <ID>
CPD_440

$$$$
CPD_445
  Mrv1822 09091914012D          

 26 29  0  0  0  0            999 V2000
    0.0000    0.8250    0.0000 Cl  0  0  0  0  0  0  0  0  0  0  0  0
    0.0000   -0.0000    0.0000 C   0  0  0  0  0  0  0  0  0  0  0  0
   -0.7145   -0.4125    0.0000 C   0  0  0  0  0  0  0  0  0  0  0  0
   -0.7145   -1.2375    0.0000 C   0  0  0  0  0  0  0  0  0  0  0  0
    0.0000   -1.6500    0.0000 C   0  0  0  0  0  0  0  0  0  0  0  0
    0.7145   -1.2375    0.0000 C   0  0  0  0  0  0  0  0  0  0  0  0
    0.7145   -0.4125    0.0000 C   0  0  0  0  0  0  0  0  0  0  0  0
    1.4289   -0.0000    0.0000 N   0  0  0  0  0  0  0  0  0  0  0  0
    2.1434   -0.4125    0.0000 C   0  0  0  0  0  0  0  0  0  0  0  0
    2.1434   -1.2375    0.0000 C   0  0  0  0  0  0  0  0  0  0  0  0
    2.8579   -1.6500    0.0000 C   0  0  0  0  0  0  0  0  0  0  0  0
    3.5724   -1.2375    0.0000 O   0  0  0  0  0  0  0  0  0  0  0  0
    2.8579   -2.4750    0.0000 N   0  0  0  0  0  0  0  0  0  0  0  0
    3.4412   -3.0584    0.0000 C   0  0  0  0  0  0  0  0  0  0  0  0
    2.8579   -3.6417    0.0000 C   0  0  0  0  0  0  0  0  0  0  0  0
    2.2745   -3.0584    0.0000 C   0  0  0  0  0  0  0  0  0  0  0  0
    2.8579   -4.4667    0.0000 C   0  0  0  0  0  0  0  0  0  0  0  0
    3.5724   -4.8792    0.0000 O   0  0  0  0  0  0  0  0  0  0  0  0
    2.1434   -4.8792    0.0000 N   0  0  0  0  0  0  0  0  0  0  0  0
    2.1434   -5.7042    0.0000 C   0  0  0  0  0  0  0  0  0  0  0  0
    1.4289   -6.1167    0.0000 C   0  0  0  0  0  0  0  0  0  0  0  0
    0.7145   -5.7042    0.0000 O   0  0  0  0  0  0  0  0  0  0  0  0
    0.7145   -4.8792    0.0000 C   0  0  0  0  0  0  0  0  0  0  0  0
    1.4289   -4.4667    0.0000 C   0  0  0  0  0  0  0  0  0  0  0  0
    1.4289   -1.6500    0.0000 C   0  0  0  0  0  0  0  0  0  0  0  0
    1.4289   -2.4750    0.0000 Cl  0  0  0  0  0  0  0  0  0  0  0  0
  1  2  1  0  0  0  0
  2  3  2  0  0  0  0
  3  4  1  0  0  0  0
  4  5  2  0  0  0  0
  5  6  1  0  0  0  0
  6  7  2  0  0  0  0
  2  7  1  0  0  0  0
  7  8  1  0  0  0  0
  8  9  2  0  0  0  0
  9 10  1  0  0  0  0
 10 11  1  0  0  0  0
 11 12  2  0  0  0  0
 11 13  1  0  0  0  0
 13 14  1  0  0  0  0
 14 15  1  0  0  0  0
 15 16  1  0  0  0  0
 13 16  1  0  0  0  0
 15 17  1  0  0  0  0
 17 18  2  0  0  0  0
 17 19  1  0  0  0  0
 19 20  1  0  0  0  0
 20 21  1  0  0  0  0
 21 22  1  0  0  0  0
 22 23  1  0  0  0  0
 23 24  1  0  0  0  0
 19 24  1  0  0  0  0
 10 25  2  0  0  0  0
  6 25  1  0  0  0  0
 25 26  1  0  0  0  0
M  END
> <ID>
CPD_445

$$$$
CPD_450
  Mrv1822 09091914012D          

 29 32  0  0  0  0            999 V2000
   -0.2093   -2.5958    0.0000 C   0  0  0  0  0  0  0  0  0  0  0  0
   -0.2093   -1.7708    0.0000 O   0  0  0  0  0  0  0  0  0  0  0  0
   -0.9237   -1.3583    0.0000 C   0  0  0  0  0  0  0  0  0  0  0  0
   -1.6382   -1.7708    0.0000 C   0  0  0  0  0  0  0  0  0  0  0  0
   -2.3527   -1.3583    0.0000 C   0  0  0  0  0  0  0  0  0  0  0  0
   -2.3527   -0.5333    0.0000 C   0  0  0  0  0  0  0  0  0  0  0  0
   -3.0671   -0.1208    0.0000 C   0  0  0  0  0  0  0  0  0  0  0  0
   -1.6382   -0.1208    0.0000 C   0  0  0  0  0  0  0  0  0  0  0  0
   -0.9237   -0.5333    0.0000 C   0  0  0  0  0  0  0  0  0  0  0  0
   -0.2093   -0.1208    0.0000 C   0  0  0  0  0  0  0  0  0  0  0  0
   -0.2093    0.7042    0.0000 C   0  0  0  0  0  0  0  0  0  0  0  0
    0.5052    1.1167    0.0000 C   0  0  0  0  0  0  0  0  0  0  0  0
    1.2197    0.7042    0.0000 C   0  0  0  0  0  0  0  0  0  0  0  0
    1.2197   -0.1208    0.0000 C   0  0  0  0  0  0  0  0  0  0  0  0
    0.5052   -0.5333    0.0000 C   0  0  0  0  0  0  0  0  0  0  0  0
    1.9341   -0.5333    0.0000 C   0  0  0  0  0  0  0  0  0  0  0  0
    2.6486   -0.1208    0.0000 O   0  0  0  0  0  0  0  0  0  0  0  0
    1.9341   -1.3583    0.0000 N   0  0  0  0  0  0  0  0  0  0  0  0
    2.5175   -1.9417    0.0000 C   0  0  0  0  0  0  0  0  0  0  0  0
    1.9341   -2.5250    0.0000 C   0  0  0  0  0  0  0  0  0  0  0  0
    1.3508   -1.9417    0.0000 C   0  0  0  0  0  0  0  0  0  0  0  0
    1.9341   -3.3500    0.0000 C   0  0  0  0  0  0  0  0  0  0  0  0
    2.6486   -3.7625    0.0000 O   0  0  0  0  0  0  0  0  0  0  0  0
    1.2197   -3.7625    0.0000 N   0  0  0  0  0  0  0  0  0  0  0  0
    1.2197   -4.5875    0.0000 C   0  0  0  0  0  0  0  0  0  0  0  0
    0.5052   -5.0000    0.0000 C   0  0  0  0  0  0  0  0  0  0  0  0
   -0.2093   -4.5875    0.0000 O   0  0  0  0  0  0  0  0  0  0  0  0
   -0.2093   -3.7625    0.0000 C   0  0  0  0  0  0  0  0  0  0  0  0
    0.5052   -3.3500    0.0000 C   0  0  0  0  0  0  0  0  0  0  0  0
  1  2  1  0  0  0  0
  2  3  1  0  0  0  0
  3  4  2  0  0  0  0
  4  5  1  0  0  0  0
  5  6  2  0  0  0  0
  6  7  1  0  0  0  0
  6  8  1  0  0  0  0
  8  9  2  0  0  0  0
  3  9  1  0  0  0  0
  9 10  1  0  0  0  0
 10 11  2  0  0  0  0
 11 12  1  0  0  0  0
 12 13  2  0  0  0  0
 13 14  1  0  0  0  0
 14 15  2  0  0  0  0
 10 15  1  0  0  0  0
 14 16  1  0  0  0  0
 16 17  2  0  0  0  0
 16 18  1  0  0  0  0
 18 19  1  0  0  0  0
 19 20  1  0  0  0  0
 20 21  1  0  0  0  0
 18 21  1  0  0  0  0
 20 22  1  0  0  0  0
 22 23  2  0  0  0  0
 22 24  1  0  0  0  0
 24 25  1  0  0  0  0
 25 26  1  0  0  0  0
 26 27  1  0  0  0  0
 27 28  1  0  0  0  0
 28 29  1  0  0  0  0
 24 29  1  0  0  0  0
M  END
> <ID>
CPD_450

$$$$
CPD_455
  Mrv1822 09091914012D          

 26 27  0  0  0  0            999 V2000
    1.4289   -7.4250    0.0000 C   0  0  0  0  0  0  0  0  0  0  0  0
    2.1434   -7.8375    0.0000 C   0  0  0  0  0  0  0  0  0  0  0  0
    2.8579   -7.4250    0.0000 C   0  0  0  0  0  0  0  0  0  0  0  0
    3.5724   -7.8375    0.0000 C   0  0  0  0  0  0  0  0  0  0  0  0
    4.2868   -7.4250    0.0000 C   0  0  0  0  0  0  0  0  0  0  0  0
    5.0013   -7.8375    0.0000 C   0  0  0  0  0  0  0  0  0  0  0  0
    5.7158   -7.4250    0.0000 C   0  0  0  0  0  0  0  0  0  0  0  0
    6.4302   -7.8375    0.0000 C   0  0  0  0  0  0  0  0  0  0  0  0
    7.1447   -7.4250    0.0000 C   0  0  0  0  0  0  0  0  0  0  0  0
    7.8592   -7.8375    0.0000 C   0  0  0  0  0  0  0  0  0  0  0  0
    7.8592   -8.6625    0.0000 C   0  0  0  0  0  0  0  0  0  0  0  0
    7.1447   -9.0750    0.0000 C   0  0  0  0  0  0  0  0  0  0  0  0
    6.4302   -8.6625    0.0000 C   0  0  0  0  0  0  0  0  0  0  0  0
    8.5737   -9.0750    0.0000 C   0  0  0  0  0  0  0  0  0  0  0  0
    8.5737   -9.9000    0.0000 O   0  0  0  0  0  0  0  0  0  0  0  0
    9.2881   -8.6625    0.0000 N   0  0  0  0  0  0  0  0  0  0  0  0
   10.0026   -9.0750    0.0000 C   0  0  0  0  0  0  0  0  0  0  0  0
   10.7171   -8.6625    0.0000 C   0  0  0  0  0  0  0  0  0  0  0  0
   11.4315   -9.0750    0.0000 C   0  0  0  0  0  0  0  0  0  0  0  0
   11.4315   -9.9000    0.0000 C   0  0  0  0  0  0  0  0  0  0  0  0
   10.7171  -10.3125    0.0000 C   0  0  0  0  0  0  0  0  0  0  0  0
   10.7171  -11.1375    0.0000 F   0  0  0  0  0  0  0  0  0  0  0  0
   10.0026   -9.9000    0.0000 C   0  0  0  0  0  0  0  0  0  0  0  0
    9.2881  -10.3125    0.0000 F   0  0  0  0  0  0  0  0  0  0  0  0
   10.7171   -7.8375    0.0000 C   0  0  0  0  0  0  0  0  0  0  0  0
   10.7171   -7.0125    0.0000 N   0  0  0  0  0  0  0  0  0  0  0  0
  1  2  1  0  0  0  0
  2  3  1  0  0  0  0
  3  4  1  0  0  0  0
  4  5  1  0  0  0  0
  5  6  1  0  0  0  0
  6  7  1  0  0  0  0
  7  8  1  0  0  0  0
  8  9  2  0  0  0  0
  9 10  1  0  0  0  0
 10 11  2  0  0  0  0
 11 12  1  0  0  0  0
 12 13  2  0  0  0  0
  8 13  1  0  0  0  0
 11 14  1  0  0  0  0
 14 15  2  0  0  0  0
 14 16  1  0  0  0  0
 16 17  1  0  0  0  0
 17 18  2  0  0  0  0
 18 19  1  0  0  0  0
 19 20  2  0  0  0  0
 20 21  1  0  0  0  0
 21 22  1  0  0  0  0
 21 23  2  0  0  0  0
 17 23  1  0  0  0  0
 23 24  1  0  0  0  0
 18 25  1  0  0  0  0
 25 26  3  0  0  0  0
M  END
> <ID>
CPD_455

$$$$
CPD_460
  Mrv1822 09091914012D          

 22 23  0  0  0  0            999 V2000
    1.9592   -1.8430    0.0000 C   0  0  0  0  0  0  0  0  0  0  0  0
    1.4289   -2.4750    0.0000 C   0  0  0  0  0  0  0  0  0  0  0  0
    0.8986   -1.8430    0.0000 C   0  0  0  0  0  0  0  0  0  0  0  0
    2.1434   -2.8875    0.0000 C   0  0  0  0  0  0  0  0  0  0  0  0
    2.1434   -3.7125    0.0000 C   0  0  0  0  0  0  0  0  0  0  0  0
    2.8579   -4.1250    0.0000 O   0  0  0  0  0  0  0  0  0  0  0  0
    1.4289   -4.1250    0.0000 C   0  0  0  0  0  0  0  0  0  0  0  0
    0.7145   -3.7125    0.0000 C   0  0  0  0  0  0  0  0  0  0  0  0
    0.7145   -2.8875    0.0000 O   0  0  0  0  0  0  0  0  0  0  0  0
    0.0000   -4.1250    0.0000 C   0  0  0  0  0  0  0  0  0  0  0  0
   -0.7145   -3.7125    0.0000 O   0  0  0  0  0  0  0  0  0  0  0  0
    0.0000   -4.9500    0.0000 N   0  0  0  0  0  0  0  0  0  0  0  0
   -0.7145   -5.3625    0.0000 C   0  0  0  0  0  0  0  0  0  0  0  0
   -0.7145   -6.1875    0.0000 C   0  0  0  0  0  0  0  0  0  0  0  0
   -1.4289   -6.6000    0.0000 C   0  0  0  0  0  0  0  0  0  0  0  0
   -2.1434   -6.1875    0.0000 C   0  0  0  0  0  0  0  0  0  0  0  0
   -2.1434   -5.3625    0.0000 C   0  0  0  0  0  0  0  0  0  0  0  0
   -2.8579   -4.9500    0.0000 F   0  0  0  0  0  0  0  0  0  0  0  0
   -1.4289   -4.9500    0.0000 C   0  0  0  0  0  0  0  0  0  0  0  0
   -1.4289   -4.1250    0.0000 F   0  0  0  0  0  0  0  0  0  0  0  0
   -0.0000   -6.6000    0.0000 C   0  0  0  0  0  0  0  0  0  0  0  0
    0.7145   -7.0125    0.0000 N   0  0  0  0  0  0  0  0  0  0  0  0
  1  2  1  0  0  0  0
  2  3  1  0  0  0  0
  2  4  1  0  0  0  0
  4  5  1  0  0  0  0
  5  6  2  0  0  0  0
  5  7  1  0  0  0  0
  7  8  2  0  0  0  0
  8  9  1  0  0  0  0
  2  9  1  0  0  0  0
  8 10  1  0  0  0  0
 10 11  2  0  0  0  0
 10 12  1  0  0  0  0
 12 13  1  0  0  0  0
 13 14  2  0  0  0  0
 14 15  1  0  0  0  0
 15 16  2  0  0  0  0
 16 17  1  0  0  0  0
 17 18  1  0  0  0  0
 17 19  2  0  0  0  0
 13 19  1  0  0  0  0
 19 20  1  0  0  0  0
 14 21  1  0  0  0  0
 21 22  3  0  0  0  0
M  END
> <ID>
CPD_460

$$$$
CPD_465
  Mrv1822 09091914012D          

 24 25  0  0  0  0            999 V2000
    1.4289   -0.8250    0.0000 C   0  0  0  0  0  0  0  0  0  0  0  0
    1.4289   -1.6500    0.0000 N   0  0  0  0  0  0  0  0  0  0  0  0
    0.7145   -2.0625    0.0000 C   0  0  0  0  0  0  0  0  0  0  0  0
    2.1434   -2.0625    0.0000 C   0  0  0  0  0  0  0  0  0  0  0  0
    2.8579   -1.6500    0.0000 O   0  0  0  0  0  0  0  0  0  0  0  0
    2.1434   -2.8875    0.0000 C   0  0  0  0  0  0  0  0  0  0  0  0
    2.8579   -3.3000    0.0000 C   0  0  0  0  0  0  0  0  0  0  0  0
    2.8579   -4.1250    0.0000 N   0  0  0  0  0  0  0  0  0  0  0  0
    2.1434   -4.5375    0.0000 C   0  0  0  0  0  0  0  0  0  0  0  0
    1.4289   -4.1250    0.0000 C   0  0  0  0  0  0  0  0  0  0  0  0
    1.4289   -3.3000    0.0000 O   0  0  0  0  0  0  0  0  0  0  0  0
    3.5724   -4.5375    0.0000 C   0  0  0  0  0  0  0  0  0  0  0  0
    3.5724   -5.3625    0.0000 O   0  0  0  0  0  0  0  0  0  0  0  0
    4.2868   -4.1250    0.0000 C   0  0  0  0  0  0  0  0  0  0  0  0
    4.6993   -4.8395    0.0000 C   0  0  0  0  0  0  0  0  0  0  0  0
    3.8743   -3.4105    0.0000 N   0  0  0  0  0  0  0  0  0  0  0  0
    5.0013   -3.7125    0.0000 C   0  0  0  0  0  0  0  0  0  0  0  0
    5.7158   -4.1250    0.0000 C   0  0  0  0  0  0  0  0  0  0  0  0
    6.4302   -3.7125    0.0000 C   0  0  0  0  0  0  0  0  0  0  0  0
    7.1447   -4.1250    0.0000 C   0  0  0  0  0  0  0  0  0  0  0  0
    7.1447   -4.9500    0.0000 C   0  0  0  0  0  0  0  0  0  0  0  0
    7.8592   -5.3625    0.0000 O   0  0  0  0  0  0  0  0  0  0  0  0
    6.4302   -5.3625    0.0000 C   0  0  0  0  0  0  0  0  0  0  0  0
    5.7158   -4.9500    0.0000 C   0  0  0  0  0  0  0  0  0  0  0  0
  1  2  1  0  0  0  0
  2  3  1  0  0  0  0
  2  4  1  0  0  0  0
  4  5  2  0  0  0  0
  4  6  1  0  0  0  0
  6  7  1  0  0  0  0
  7  8  1  0  0  0  0
  8  9  1  0  0  0  0
  9 10  1  0  0  0  0
 10 11  1  0  0  0  0
  6 11  1  0  0  0  0
  8 12  1  0  0  0  0
 12 13  2  0  0  0  0
 12 14  1  0  0  0  0
 14 15  1  0  0  0  0
 14 16  1  0  0  0  0
 14 17  1  0  0  0  0
 17 18  1  0  0  0  0
 18 19  2  0  0  0  0
 19 20  1  0  0  0  0
 20 21  2  0  0  0  0
 21 22  1  0  0  0  0
 21 23  1  0  0  0  0
 23 24  2  0  0  0  0
 18 24  1  0  0  0  0
M  END
> <ID>
CPD_465

$$$$
CPD_470
  Mrv1822 09091914012D          

 22 23  0  0  0  0            999 V2000
    1.4289    0.8250    0.0000 C   0  0  0  0  0  0  0  0  0  0  0  0
    1.4289    0.0000    0.0000 N   0  0  0  0  0  0  0  0  0  0  0  0
    0.7145   -0.4125    0.0000 C   0  0  0  0  0  0  0  0  0  0  0  0
    2.1434   -0.4125    0.0000 C   0  0  0  0  0  0  0  0  0  0  0  0
    2.8579    0.0000    0.0000 O   0  0  0  0  0  0  0  0  0  0  0  0
    2.1434   -1.2375    0.0000 C   0  0  0  0  0  0  0  0  0  0  0  0
    2.8579   -1.6500    0.0000 C   0  0  0  0  0  0  0  0  0  0  0  0
    2.8579   -2.4750    0.0000 N   0  0  0  0  0  0  0  0  0  0  0  0
    2.1434   -2.8875    0.0000 C   0  0  0  0  0  0  0  0  0  0  0  0
    1.4289   -2.4750    0.0000 C   0  0  0  0  0  0  0  0  0  0  0  0
    1.4289   -1.6500    0.0000 O   0  0  0  0  0  0  0  0  0  0  0  0
    3.5724   -2.8875    0.0000 C   0  0  0  0  0  0  0  0  0  0  0  0
    4.2868   -2.4750    0.0000 O   0  0  0  0  0  0  0  0  0  0  0  0
    3.5724   -3.7125    0.0000 C   0  0  0  0  0  0  0  0  0  0  0  0
    4.2868   -4.1250    0.0000 C   0  0  0  0  0  0  0  0  0  0  0  0
    4.2868   -4.9500    0.0000 C   0  0  0  0  0  0  0  0  0  0  0  0
    3.5724   -5.3625    0.0000 N   0  0  0  0  0  0  0  0  0  0  0  0
    2.8579   -4.9500    0.0000 C   0  0  0  0  0  0  0  0  0  0  0  0
    2.8579   -4.1250    0.0000 C   0  0  0  0  0  0  0  0  0  0  0  0
    5.0013   -5.3625    0.0000 N   0  0  0  0  0  0  0  0  0  0  0  0
    5.7158   -4.9500    0.0000 C   0  0  0  0  0  0  0  0  0  0  0  0
    5.0013   -6.1875    0.0000 C   0  0  0  0  0  0  0  0  0  0  0  0
  1  2  1  0  0  0  0
  2  3  1  0  0  0  0
  2  4  1  0  0  0  0
  4  5  2  0  0  0  0
  4  6  1  0  0  0  0
  6  7  1  0  0  0  0
  7  8  1  0  0  0  0
  8  9  1  0  0  0  0
  9 10  1  0  0  0  0
 10 11  1  0  0  0  0
  6 11  1  0  0  0  0
  8 12  1  0  0  0  0
 12 13  2  0  0  0  0
 12 14  1  0  0  0  0
 14 15  2  0  0  0  0
 15 16  1  0  0  0  0
 16 17  2  0  0  0  0
 17 18  1  0  0  0  0
 18 19  2  0  0  0  0
 14 19  1  0  0  0  0
 16 20  1  0  0  0  0
 20 21  1  0  0  0  0
 20 22  1  0  0  0  0
M  END
> <ID>
CPD_470

$$$$
CPD_475
  Mrv1822 09091914012D          

 28 30  0  0  0  0            999 V2000
   -4.2868   -1.6500    0.0000 C   0  0  0  0  0  0  0  0  0  0  0  0
   -4.2868   -2.4750    0.0000 N   0  0  0  0  0  0  0  0  0  0  0  0
   -5.0013   -2.8875    0.0000 C   0  0  0  0  0  0  0  0  0  0  0  0
   -3.5724   -2.8875    0.0000 C   0  0  0  0  0  0  0  0  0  0  0  0
   -2.8579   -2.4750    0.0000 O   0  0  0  0  0  0  0  0  0  0  0  0
   -3.5724   -3.7125    0.0000 C   0  0  0  0  0  0  0  0  0  0  0  0
   -2.8579   -4.1250    0.0000 C   0  0  0  0  0  0  0  0  0  0  0  0
   -2.8579   -4.9500    0.0000 N   0  0  0  0  0  0  0  0  0  0  0  0
   -3.5724   -5.3625    0.0000 C   0  0  0  0  0  0  0  0  0  0  0  0
   -4.2868   -4.9500    0.0000 C   0  0  0  0  0  0  0  0  0  0  0  0
   -4.2868   -4.1250    0.0000 O   0  0  0  0  0  0  0  0  0  0  0  0
   -2.1434   -5.3625    0.0000 C   0  0  0  0  0  0  0  0  0  0  0  0
   -1.4289   -4.9500    0.0000 O   0  0  0  0  0  0  0  0  0  0  0  0
   -2.1434   -6.1875    0.0000 C   0  0  0  0  0  0  0  0  0  0  0  0
   -1.4289   -6.6000    0.0000 C   0  0  0  0  0  0  0  0  0  0  0  0
   -1.4289   -7.4250    0.0000 C   0  0  0  0  0  0  0  0  0  0  0  0
   -2.1434   -7.8375    0.0000 C   0  0  0  0  0  0  0  0  0  0  0  0
   -2.1434   -8.6625    0.0000 O   0  0  0  0  0  0  0  0  0  0  0  0
   -2.8579   -9.0750    0.0000 C   0  0  0  0  0  0  0  0  0  0  0  0
   -2.8579   -9.9000    0.0000 C   0  0  0  0  0  0  0  0  0  0  0  0
   -2.1434  -10.3125    0.0000 C   0  0  0  0  0  0  0  0  0  0  0  0
   -1.4289   -9.9000    0.0000 C   0  0  0  0  0  0  0  0  0  0  0  0
   -0.7145  -10.3125    0.0000 C   0  0  0  0  0  0  0  0  0  0  0  0
   -0.7145  -11.1375    0.0000 C   0  0  0  0  0  0  0  0  0  0  0  0
   -1.4289  -11.5500    0.0000 C   0  0  0  0  0  0  0  0  0  0  0  0
   -2.1434  -11.1375    0.0000 C   0  0  0  0  0  0  0  0  0  0  0  0
   -2.8579   -7.4250    0.0000 C   0  0  0  0  0  0  0  0  0  0  0  0
   -2.8579   -6.6000    0.0000 C   0  0  0  0  0  0  0  0  0  0  0  0
  1  2  1  0  0  0  0
  2  3  1  0  0  0  0
  2  4  1  0  0  0  0
  4  5  2  0  0  0  0
  4  6  1  0  0  0  0
  6  7  1  0  0  0  0
  7  8  1  0  0  0  0
  8  9  1  0  0  0  0
  9 10  1  0  0  0  0
 10 11  1  0  0  0  0
  6 11  1  0  0  0  0
  8 12  1  0  0  0  0
 12 13  2  0  0  0  0
 12 14  1  0  0  0  0
 14 15  2  0  0  0  0
 15 16  1  0  0  0  0
 16 17  2  0  0  0  0
 17 18  1  0  0  0  0
 18 19  1  0  0  0  0
 19 20  1  0  0  0  0
 20 21  1  0  0  0  0
 21 22  2  0  0  0  0
 22 23  1  0  0  0  0
 23 24  2  0  0  0  0
 24 25  1  0  0  0  0
 25 26  2  0  0  0  0
 21 26  1  0  0  0  0
 17 27  1  0  0  0  0
 27 28  2  0  0  0  0
 14 28  1  0  0  0  0
M  END
> <ID>
CPD_475

$$$$
CPD_480
  Mrv1822 09091914012D          

 33 36  0  0  1  0            999 V2000
    0.7145   -5.3625    0.0000 C   0  0  0  0  0  0  0  0  0  0  0  0
    0.7145   -6.1875    0.0000 O   0  0  0  0  0  0  0  0  0  0  0  0
    1.4289   -6.6000    0.0000 C   0  0  0  0  0  0  0  0  0  0  0  0
    2.1434   -6.1875    0.0000 O   0  0  0  0  0  0  0  0  0  0  0  0
    1.4289   -7.4250    0.0000 C   0  0  1  0  0  0  0  0  0  0  0  0
    2.1434   -7.8375    0.0000 C   0  0  0  0  0  0  0  0  0  0  0  0
    2.1434   -8.6625    0.0000 N   0  0  0  0  0  0  0  0  0  0  0  0
    1.4289   -9.0750    0.0000 C   0  0  0  0  0  0  0  0  0  0  0  0
    0.7145   -8.6625    0.0000 C   0  0  0  0  0  0  0  0  0  0  0  0
    0.7145   -7.8375    0.0000 O   0  0  0  0  0  0  0  0  0  0  0  0
    2.8579   -9.0750    0.0000 C   0  0  0  0  0  0  0  0  0  0  0  0
    3.5724   -8.6625    0.0000 O   0  0  0  0  0  0  0  0  0  0  0  0
    2.8579   -9.9000    0.0000 C   0  0  0  0  0  0  0  0  0  0  0  0
    2.1434  -10.3125    0.0000 C   0  0  0  0  0  0  0  0  0  0  0  0
    2.1434  -11.1375    0.0000 C   0  0  0  0  0  0  0  0  0  0  0  0
    1.4289  -11.5500    0.0000 C   0  0  0  0  0  0  0  0  0  0  0  0
    0.7145  -11.1375    0.0000 C   0  0  0  0  0  0  0  0  0  0  0  0
    0.7145  -10.3125    0.0000 C   0  0  0  0  0  0  0  0  0  0  0  0
    1.4289   -9.9000    0.0000 C   0  0  0  0  0  0  0  0  0  0  0  0
    1.4289  -12.3750    0.0000 C   0  0  0  0  0  0  0  0  0  0  0  0
    2.1434  -12.7875    0.0000 C   0  0  0  0  0  0  0  0  0  0  0  0
    2.1434  -13.6125    0.0000 C   0  0  0  0  0  0  0  0  0  0  0  0
    1.4289  -14.0250    0.0000 C   0  0  0  0  0  0  0  0  0  0  0  0
    1.4289  -14.8500    0.0000 O   0  0  0  0  0  0  0  0  0  0  0  0
    2.1434  -15.2625    0.0000 C   0  0  0  0  0  0  0  0  0  0  0  0
    2.1434  -16.0875    0.0000 C   0  0  0  0  0  0  0  0  0  0  0  0
    2.8579  -16.5000    0.0000 C   0  0  0  0  0  0  0  0  0  0  0  0
    2.8579  -17.3250    0.0000 C   0  0  0  0  0  0  0  0  0  0  0  0
    2.1434  -17.7375    0.0000 C   0  0  0  0  0  0  0  0  0  0  0  0
    1.4289  -17.3250    0.0000 C   0  0  0  0  0  0  0  0  0  0  0  0
    1.4289  -16.5000    0.0000 C   0  0  0  0  0  0  0  0  0  0  0  0
    0.7145  -13.6125    0.0000 C   0  0  0  0  0  0  0  0  0  0  0  0
    0.7145  -12.7875    0.0000 C   0  0  0  0  0  0  0  0  0  0  0  0
  1  2  1  0  0  0  0
  2  3  1  0  0  0  0
  3  4  2  0  0  0  0
  5  3  1  1  0  0  0
  5  6  1  0  0  0  0
  6  7  1  0  0  0  0
  7  8  1  0  0  0  0
  8  9  1  0  0  0  0
  9 10  1  0  0  0  0
  5 10  1  0  0  0  0
  7 11  1  0  0  0  0
 11 12  2  0  0  0  0
 11 13  1  0  0  0  0
 13 14  1  0  0  0  0
 14 15  2  0  0  0  0
 15 16  1  0  0  0  0
 16 17  2  0  0  0  0
 17 18  1  0  0  0  0
 18 19  2  0  0  0  0
 14 19  1  0  0  0  0
 16 20  1  0  0  0  0
 20 21  2  0  0  0  0
 21 22  1  0  0  0  0
 22 23  2  0  0  0  0
 23 24  1  0  0  0  0
 24 25  1  0  0  0  0
 25 26  1  0  0  0  0
 26 27  2  0  0  0  0
 27 28  1  0  0  0  0
 28 29  2  0  0  0  0
 29 30  1  0  0  0  0
 30 31  2  0  0  0  0
 26 31  1  0  0  0  0
 23 32  1  0  0  0  0
 32 33  2  0  0  0  0
 20 33  1  0  0  0  0
M  END
> <ID>
CPD_480

$$$$
CPD_485
  Mrv1822 09091914012D          

 27 29  0  0  1  0            999 V2000
    1.4289   -2.4750    0.0000 C   0  0  0  0  0  0  0  0  0  0  0  0
    1.4289   -3.3000    0.0000 O   0  0  0  0  0  0  0  0  0  0  0  0
    2.1434   -3.7125    0.0000 C   0  0  0  0  0  0  0  0  0  0  0  0
    2.8579   -3.3000    0.0000 O   0  0  0  0  0  0  0  0  0  0  0  0
    2.1434   -4.5375    0.0000 C   0  0  1  0  0  0  0  0  0  0  0  0
    2.8579   -4.9500    0.0000 C   0  0  0  0  0  0  0  0  0  0  0  0
    2.8579   -5.7750    0.0000 N   0  0  0  0  0  0  0  0  0  0  0  0
    2.1434   -6.1875    0.0000 C   0  0  0  0  0  0  0  0  0  0  0  0
    1.4289   -5.7750    0.0000 C   0  0  0  0  0  0  0  0  0  0  0  0
    1.4289   -4.9500    0.0000 O   0  0  0  0  0  0  0  0  0  0  0  0
    3.5724   -6.1875    0.0000 C   0  0  0  0  0  0  0  0  0  0  0  0
    4.2868   -5.7750    0.0000 O   0  0  0  0  0  0  0  0  0  0  0  0
    3.5724   -7.0125    0.0000 C   0  0  0  0  0  0  0  0  0  0  0  0
    4.2868   -7.4250    0.0000 C   0  0  0  0  0  0  0  0  0  0  0  0
    4.2868   -8.2500    0.0000 C   0  0  0  0  0  0  0  0  0  0  0  0
    3.5724   -8.6625    0.0000 C   0  0  0  0  0  0  0  0  0  0  0  0
    2.8579   -8.2500    0.0000 C   0  0  0  0  0  0  0  0  0  0  0  0
    2.8579   -7.4250    0.0000 C   0  0  0  0  0  0  0  0  0  0  0  0
    3.5724   -9.4875    0.0000 S   0  0  0  0  0  0  0  0  0  0  0  0
    2.7474   -9.4875    0.0000 O   0  0  0  0  0  0  0  0  0  0  0  0
    4.3974   -9.4875    0.0000 O   0  0  0  0  0  0  0  0  0  0  0  0
    3.5724  -10.3125    0.0000 N   0  0  0  0  0  0  0  0  0  0  0  0
    4.2868  -10.7250    0.0000 C   0  0  0  0  0  0  0  0  0  0  0  0
    4.2868  -11.5500    0.0000 C   0  0  0  0  0  0  0  0  0  0  0  0
    3.5724  -11.9625    0.0000 O   0  0  0  0  0  0  0  0  0  0  0  0
    2.8579  -11.5500    0.0000 C   0  0  0  0  0  0  0  0  0  0  0  0
    2.8579  -10.7250    0.0000 C   0  0  0  0  0  0  0  0  0  0  0  0
  1  2  1  0  0  0  0
  2  3  1  0  0  0  0
  3  4  2  0  0  0  0
  5  3  1  1  0  0  0
  5  6  1  0  0  0  0
  6  7  1  0  0  0  0
  7  8  1  0  0  0  0
  8  9  1  0  0  0  0
  9 10  1  0  0  0  0
  5 10  1  0  0  0  0
  7 11  1  0  0  0  0
 11 12  2  0  0  0  0
 11 13  1  0  0  0  0
 13 14  2  0  0  0  0
 14 15  1  0  0  0  0
 15 16  2  0  0  0  0
 16 17  1  0  0  0  0
 17 18  2  0  0  0  0
 13 18  1  0  0  0  0
 16 19  1  0  0  0  0
 19 20  2  0  0  0  0
 19 21  2  0  0  0  0
 19 22  1  0  0  0  0
 22 23  1  0  0  0  0
 23 24  1  0  0  0  0
 24 25  1  0  0  0  0
 25 26  1  0  0  0  0
 26 27  1  0  0  0  0
 22 27  1  0  0  0  0
M  END
> <ID>
CPD_485

$$$$
CPD_490
  Mrv1822 09091914012D          

 32 34  0  0  1  0            999 V2000
   -0.8250   -1.6500    0.0000 C   0  0  0  0  0  0  0  0  0  0  0  0
    0.0000   -1.6500    0.0000 O   0  0  0  0  0  0  0  0  0  0  0  0
    0.4125   -0.9355    0.0000 C   0  0  1  0  0  0  0  0  0  0  0  0
    1.2375   -0.9355    0.0000 C   0  0  0  0  0  0  0  0  0  0  0  0
    1.6500   -0.2211    0.0000 O   0  0  0  0  0  0  0  0  0  0  0  0
    1.6500   -1.6500    0.0000 N   0  0  0  0  0  0  0  0  0  0  0  0
    1.2375   -2.3645    0.0000 C   0  0  0  0  0  0  0  0  0  0  0  0
    0.4125   -2.3645    0.0000 C   0  0  0  0  0  0  0  0  0  0  0  0
    0.0000   -3.0789    0.0000 C   0  0  0  0  0  0  0  0  0  0  0  0
   -0.8250   -3.0789    0.0000 Cl  0  0  0  0  0  0  0  0  0  0  0  0
    0.4125   -3.7934    0.0000 C   0  0  0  0  0  0  0  0  0  0  0  0
    1.2375   -3.7934    0.0000 C   0  0  0  0  0  0  0  0  0  0  0  0
    1.6500   -3.0789    0.0000 C   0  0  0  0  0  0  0  0  0  0  0  0
    2.4750   -3.0789    0.0000 O   0  0  0  0  0  0  0  0  0  0  0  0
    2.8875   -3.7934    0.0000 C   0  0  0  0  0  0  0  0  0  0  0  0
    2.4750   -1.6500    0.0000 S   0  0  0  0  0  0  0  0  0  0  0  0
    2.4750   -0.8250    0.0000 O   0  0  0  0  0  0  0  0  0  0  0  0
    2.4750   -2.4750    0.0000 O   0  0  0  0  0  0  0  0  0  0  0  0
    3.3000   -1.6500    0.0000 C   0  0  0  0  0  0  0  0  0  0  0  0
    3.7125   -0.9355    0.0000 C   0  0  0  0  0  0  0  0  0  0  0  0
    4.5375   -0.9355    0.0000 C   0  0  0  0  0  0  0  0  0  0  0  0
    4.9500   -1.6500    0.0000 C   0  0  0  0  0  0  0  0  0  0  0  0
    5.7750   -1.6500    0.0000 O   0  0  0  0  0  0  0  0  0  0  0  0
    6.1875   -2.3645    0.0000 C   0  0  0  0  0  0  0  0  0  0  0  0
    4.5375   -2.3645    0.0000 C   0  0  0  0  0  0  0  0  0  0  0  0
    3.7125   -2.3645    0.0000 C   0  0  0  0  0  0  0  0  0  0  0  0
    0.0000   -0.2211    0.0000 C   0  0  0  0  0  0  0  0  0  0  0  0
   -0.8250   -0.2211    0.0000 C   0  0  0  0  0  0  0  0  0  0  0  0
   -1.2375    0.4934    0.0000 C   0  0  0  0  0  0  0  0  0  0  0  0
   -0.8250    1.2079    0.0000 C   0  0  0  0  0  0  0  0  0  0  0  0
    0.0000    1.2079    0.0000 C   0  0  0  0  0  0  0  0  0  0  0  0
    0.4125    0.4934    0.0000 C   0  0  0  0  0  0  0  0  0  0  0  0
  1  2  1  0  0  0  0
  3  2  1  6  0  0  0
  3  4  1  0  0  0  0
  4  5  2  0  0  0  0
  4  6  1  0  0  0  0
  6  7  1  0  0  0  0
  7  8  2  0  0  0  0
  8  9  1  0  0  0  0
  9 10  1  0  0  0  0
  9 11  2  0  0  0  0
 11 12  1  0  0  0  0
 12 13  2  0  0  0  0
  7 13  1  0  0  0  0
 13 14  1  0  0  0  0
 14 15  1  0  0  0  0
  6 16  1  0  0  0  0
 16 17  2  0  0  0  0
 16 18  2  0  0  0  0
 16 19  1  0  0  0  0
 19 20  2  0  0  0  0
 20 21  1  0  0  0  0
 21 22  2  0  0  0  0
 22 23  1  0  0  0  0
 23 24  1  0  0  0  0
 22 25  1  0  0  0  0
 25 26  2  0  0  0  0
 19 26  1  0  0  0  0
  3 27  1  0  0  0  0
 27 28  2  0  0  0  0
 28 29  1  0  0  0  0
 29 30  2  0  0  0  0
 30 31  1  0  0  0  0
 31 32  2  0  0  0  0
 27 32  1  0  0  0  0
M  END
> <ID>
CPD_490

$$$$
CPD_495
  Mrv1822 09091914012D          

 28 30  0  0  0  0            999 V2000
   -1.4289   -0.8250    0.0000 C   0  0  0  0  0  0  0  0  0  0  0  0
   -0.7145   -1.2375    0.0000 O   0  0  0  0  0  0  0  0  0  0  0  0
   -0.7145   -2.0625    0.0000 C   0  0  0  0  0  0  0  0  0  0  0  0
   -1.4289   -2.4750    0.0000 C   0  0  0  0  0  0  0  0  0  0  0  0
   -1.4289   -3.3000    0.0000 C   0  0  0  0  0  0  0  0  0  0  0  0
   -0.7145   -3.7125    0.0000 C   0  0  0  0  0  0  0  0  0  0  0  0
   -0.7145   -4.5375    0.0000 Cl  0  0  0  0  0  0  0  0  0  0  0  0
    0.0000   -3.3000    0.0000 C   0  0  0  0  0  0  0  0  0  0  0  0
    0.0000   -2.4750    0.0000 C   0  0  0  0  0  0  0  0  0  0  0  0
    0.7145   -2.0625    0.0000 N   0  0  0  0  0  0  0  0  0  0  0  0
    1.4289   -2.4750    0.0000 C   0  0  0  0  0  0  0  0  0  0  0  0
    2.1434   -2.0625    0.0000 O   0  0  0  0  0  0  0  0  0  0  0  0
    1.4289   -3.3000    0.0000 C   0  0  0  0  0  0  0  0  0  0  0  0
    2.0964   -3.7849    0.0000 C   0  0  0  0  0  0  0  0  0  0  0  0
    1.8414   -4.5695    0.0000 S   0  0  0  0  0  0  0  0  0  0  0  0
    1.0164   -4.5695    0.0000 C   0  0  0  0  0  0  0  0  0  0  0  0
    0.5315   -5.2370    0.0000 Br  0  0  0  0  0  0  0  0  0  0  0  0
    0.7615   -3.7849    0.0000 N   0  0  0  0  0  0  0  0  0  0  0  0
    0.7145   -1.2375    0.0000 S   0  0  0  0  0  0  0  0  0  0  0  0
    1.5395   -1.2375    0.0000 O   0  0  0  0  0  0  0  0  0  0  0  0
   -0.1105   -1.2375    0.0000 O   0  0  0  0  0  0  0  0  0  0  0  0
    0.7145   -0.4125    0.0000 C   0  0  0  0  0  0  0  0  0  0  0  0
   -0.0000   -0.0000    0.0000 C   0  0  0  0  0  0  0  0  0  0  0  0
   -0.0000    0.8250    0.0000 C   0  0  0  0  0  0  0  0  0  0  0  0
    0.7145    1.2375    0.0000 C   0  0  0  0  0  0  0  0  0  0  0  0
    0.7145    2.0625    0.0000 F   0  0  0  0  0  0  0  0  0  0  0  0
    1.4289    0.8250    0.0000 C   0  0  0  0  0  0  0  0  0  0  0  0
    1.4289    0.0000    0.0000 C   0  0  0  0  0  0  0  0  0  0  0  0
  1  2  1  0  0  0  0
  2  3  1  0  0  0  0
  3  4  2  0  0  0  0
  4  5  1  0  0  0  0
  5  6  2  0  0  0  0
  6  7  1  0  0  0  0
  6  8  1  0  0  0  0
  8  9  2  0  0  0  0
  3  9  1  0  0  0  0
  9 10  1  0  0  0  0
 10 11  1  0  0  0  0
 11 12  2  0  0  0  0
 11 13  1  0  0  0  0
 13 14  2  0  0  0  0
 14 15  1  0  0  0  0
 15 16  1  0  0  0  0
 16 17  1  0  0  0  0
 16 18  2  0  0  0  0
 13 18  1  0  0  0  0
 10 19  1  0  0  0  0
 19 20  2  0  0  0  0
 19 21  2  0  0  0  0
 19 22  1  0  0  0  0
 22 23  2  0  0  0  0
 23 24  1  0  0  0  0
 24 25  2  0  0  0  0
 25 26  1  0  0  0  0
 25 27  1  0  0  0  0
 27 28  2  0  0  0  0
 22 28  1  0  0  0  0
M  END
> <ID>
CPD_495

$$$$
CPD_500
  Mrv1822 09091914012D          

 33 35  0  0  0  0            999 V2000
    0.0000   -0.8250    0.0000 C   0  0  0  0  0  0  0  0  0  0  0  0
   -0.7145   -1.2375    0.0000 O   0  0  0  0  0  0  0  0  0  0  0  0
   -0.7145   -2.0625    0.0000 C   0  0  0  0  0  0  0  0  0  0  0  0
    0.0000   -2.4750    0.0000 C   0  0  0  0  0  0  0  0  0  0  0  0
    0.0000   -3.3000    0.0000 C   0  0  0  0  0  0  0  0  0  0  0  0
   -0.7145   -3.7125    0.0000 C   0  0  0  0  0  0  0  0  0  0  0  0
   -0.7145   -4.5375    0.0000 Cl  0  0  0  0  0  0  0  0  0  0  0  0
   -1.4289   -3.3000    0.0000 C   0  0  0  0  0  0  0  0  0  0  0  0
   -1.4289   -2.4750    0.0000 C   0  0  0  0  0  0  0  0  0  0  0  0
   -2.1434   -2.0625    0.0000 N   0  0  0  0  0  0  0  0  0  0  0  0
   -2.1434   -1.2375    0.0000 C   0  0  0  0  0  0  0  0  0  0  0  0
   -2.8579   -0.8250    0.0000 O   0  0  0  0  0  0  0  0  0  0  0  0
   -1.4289   -0.8250    0.0000 C   0  0  0  0  0  0  0  0  0  0  0  0
   -1.4289   -0.0000    0.0000 C   0  0  0  0  0  0  0  0  0  0  0  0
   -2.1434    0.4125    0.0000 C   0  0  0  0  0  0  0  0  0  0  0  0
   -2.1434    1.2375    0.0000 C   0  0  0  0  0  0  0  0  0  0  0  0
   -2.8579    1.6500    0.0000 F   0  0  0  0  0  0  0  0  0  0  0  0
   -1.4289    1.6500    0.0000 C   0  0  0  0  0  0  0  0  0  0  0  0
   -1.4289    2.4750    0.0000 O   0  0  0  0  0  0  0  0  0  0  0  0
   -0.7145    2.8875    0.0000 C   0  0  0  0  0  0  0  0  0  0  0  0
   -0.7145    1.2375    0.0000 C   0  0  0  0  0  0  0  0  0  0  0  0
    0.0000    1.6500    0.0000 Cl  0  0  0  0  0  0  0  0  0  0  0  0
   -0.7145    0.4125    0.0000 C   0  0  0  0  0  0  0  0  0  0  0  0
   -2.8579   -2.4750    0.0000 S   0  0  0  0  0  0  0  0  0  0  0  0
   -3.2704   -1.7605    0.0000 O   0  0  0  0  0  0  0  0  0  0  0  0
   -2.4454   -3.1895    0.0000 O   0  0  0  0  0  0  0  0  0  0  0  0
   -3.5724   -2.8875    0.0000 C   0  0  0  0  0  0  0  0  0  0  0  0
   -3.5724   -3.7125    0.0000 C   0  0  0  0  0  0  0  0  0  0  0  0
   -4.2868   -4.1250    0.0000 C   0  0  0  0  0  0  0  0  0  0  0  0
   -5.0013   -3.7125    0.0000 C   0  0  0  0  0  0  0  0  0  0  0  0
   -5.7158   -4.1250    0.0000 F   0  0  0  0  0  0  0  0  0  0  0  0
   -5.0013   -2.8875    0.0000 C   0  0  0  0  0  0  0  0  0  0  0  0
   -4.2868   -2.4750    0.0000 C   0  0  0  0  0  0  0  0  0  0  0  0
  1  2  1  0  0  0  0
  2  3  1  0  0  0  0
  3  4  2  0  0  0  0
  4  5  1  0  0  0  0
  5  6  2  0  0  0  0
  6  7  1  0  0  0  0
  6  8  1  0  0  0  0
  8  9  2  0  0  0  0
  3  9  1  0  0  0  0
  9 10  1  0  0  0  0
 10 11  1  0  0  0  0
 11 12  2  0  0  0  0
 11 13  1  0  0  0  0
 13 14  1  0  0  0  0
 14 15  2  0  0  0  0
 15 16  1  0  0  0  0
 16 17  1  0  0  0  0
 16 18  2  0  0  0  0
 18 19  1  0  0  0  0
 19 20  1  0  0  0  0
 18 21  1  0  0  0  0
 21 22  1  0  0  0  0
 21 23  2  0  0  0  0
 14 23  1  0  0  0  0
 10 24  1  0  0  0  0
 24 25  2  0  0  0  0
 24 26  2  0  0  0  0
 24 27  1  0  0  0  0
 27 28  2  0  0  0  0
 28 29  1  0  0  0  0
 29 30  2  0  0  0  0
 30 31  1  0  0  0  0
 30 32  1  0  0  0  0
 32 33  2  0  0  0  0
 27 33  1  0  0  0  0
M  END
> <ID>
CPD_500

$$$$
CPD_505
  Mrv1822 09091914012D          

 23 25  0  0  0  0            999 V2000
    3.4990    1.1104    0.0000 C   0  0  0  0  0  0  0  0  0  0  0  0
    2.7845    0.6979    0.0000 O   0  0  0  0  0  0  0  0  0  0  0  0
    2.0701    1.1104    0.0000 C   0  0  0  0  0  0  0  0  0  0  0  0
    1.3556    0.6979    0.0000 C   0  0  0  0  0  0  0  0  0  0  0  0
    1.3556   -0.1271    0.0000 N   0  0  0  0  0  0  0  0  0  0  0  0
    2.0701   -0.5396    0.0000 C   0  0  0  0  0  0  0  0  0  0  0  0
    2.7845   -0.1271    0.0000 O   0  0  0  0  0  0  0  0  0  0  0  0
    2.0701   -1.3646    0.0000 C   0  0  0  0  0  0  0  0  0  0  0  0
    2.7845   -1.7771    0.0000 C   0  0  0  0  0  0  0  0  0  0  0  0
    2.7845   -2.6021    0.0000 C   0  0  0  0  0  0  0  0  0  0  0  0
    3.4990   -3.0146    0.0000 Cl  0  0  0  0  0  0  0  0  0  0  0  0
    2.0701   -3.0146    0.0000 C   0  0  0  0  0  0  0  0  0  0  0  0
    1.3556   -2.6021    0.0000 C   0  0  0  0  0  0  0  0  0  0  0  0
    0.6411   -3.0146    0.0000 Cl  0  0  0  0  0  0  0  0  0  0  0  0
    1.3556   -1.7771    0.0000 C   0  0  0  0  0  0  0  0  0  0  0  0
    0.6411    1.1104    0.0000 C   0  0  0  0  0  0  0  0  0  0  0  0
    0.6411    1.9354    0.0000 C   0  0  0  0  0  0  0  0  0  0  0  0
   -0.1435    2.1904    0.0000 C   0  0  0  0  0  0  0  0  0  0  0  0
   -0.6284    1.5229    0.0000 C   0  0  0  0  0  0  0  0  0  0  0  0
   -0.1435    0.8555    0.0000 C   0  0  0  0  0  0  0  0  0  0  0  0
   -0.3984    0.0709    0.0000 O   0  0  0  0  0  0  0  0  0  0  0  0
    1.3556    2.3479    0.0000 C   0  0  0  0  0  0  0  0  0  0  0  0
    2.0701    1.9354    0.0000 C   0  0  0  0  0  0  0  0  0  0  0  0
  1  2  1  0  0  0  0
  2  3  1  0  0  0  0
  3  4  2  0  0  0  0
  4  5  1  0  0  0  0
  5  6  1  0  0  0  0
  6  7  2  0  0  0  0
  6  8  1  0  0  0  0
  8  9  2  0  0  0  0
  9 10  1  0  0  0  0
 10 11  1  0  0  0  0
 10 12  2  0  0  0  0
 12 13  1  0  0  0  0
 13 14  1  0  0  0  0
 13 15  2  0  0  0  0
  8 15  1  0  0  0  0
  4 16  1  0  0  0  0
 16 17  2  0  0  0  0
 17 18  1  0  0  0  0
 18 19  1  0  0  0  0
 19 20  1  0  0  0  0
 16 20  1  0  0  0  0
 20 21  2  0  0  0  0
 17 22  1  0  0  0  0
 22 23  2  0  0  0  0
  3 23  1  0  0  0  0
M  END
> <ID>
CPD_505

$$$$
CPD_510
  Mrv1822 09091914012D          

 27 30  0  0  0  0            999 V2000
    4.8546   -3.5893    0.0000 C   0  0  0  0  0  0  0  0  0  0  0  0
    4.1401   -4.0018    0.0000 C   0  0  0  0  0  0  0  0  0  0  0  0
    4.1401   -4.8268    0.0000 C   0  0  0  0  0  0  0  0  0  0  0  0
    3.4256   -3.5893    0.0000 C   0  0  0  0  0  0  0  0  0  0  0  0
    2.7112   -4.0018    0.0000 C   0  0  0  0  0  0  0  0  0  0  0  0
    1.9967   -3.5893    0.0000 N   0  0  0  0  0  0  0  0  0  0  0  0
    1.2121   -3.8442    0.0000 N   0  0  0  0  0  0  0  0  0  0  0  0
    0.7272   -3.1768    0.0000 C   0  0  0  0  0  0  0  0  0  0  0  0
   -0.0978   -3.1768    0.0000 N   0  0  0  0  0  0  0  0  0  0  0  0
   -0.5103   -3.8913    0.0000 C   0  0  0  0  0  0  0  0  0  0  0  0
   -0.0978   -4.6057    0.0000 O   0  0  0  0  0  0  0  0  0  0  0  0
   -1.3353   -3.8913    0.0000 C   0  0  0  0  0  0  0  0  0  0  0  0
   -1.7478   -4.6057    0.0000 C   0  0  0  0  0  0  0  0  0  0  0  0
   -2.5728   -4.6057    0.0000 C   0  0  0  0  0  0  0  0  0  0  0  0
   -3.1249   -5.2188    0.0000 N   0  0  0  0  0  0  0  0  0  0  0  0
   -3.8786   -4.8833    0.0000 N   0  0  0  0  0  0  0  0  0  0  0  0
   -3.7923   -4.0628    0.0000 C   0  0  0  0  0  0  0  0  0  0  0  0
   -2.9853   -3.8913    0.0000 C   0  0  0  0  0  0  0  0  0  0  0  0
   -2.5728   -3.1768    0.0000 C   0  0  0  0  0  0  0  0  0  0  0  0
   -1.7478   -3.1768    0.0000 C   0  0  0  0  0  0  0  0  0  0  0  0
   -4.5930   -5.2958    0.0000 C   0  0  0  0  0  0  0  0  0  0  0  0
   -4.5930   -6.1208    0.0000 C   0  0  0  0  0  0  0  0  0  0  0  0
   -5.3075   -4.8833    0.0000 O   0  0  0  0  0  0  0  0  0  0  0  0
    1.2121   -2.5093    0.0000 N   0  0  0  0  0  0  0  0  0  0  0  0
    1.9967   -2.7643    0.0000 C   0  0  0  0  0  0  0  0  0  0  0  0
    2.7112   -2.3518    0.0000 N   0  0  0  0  0  0  0  0  0  0  0  0
    3.4256   -2.7643    0.0000 C   0  0  0  0  0  0  0  0  0  0  0  0
  1  2  1  0  0  0  0
  2  3  1  0  0  0  0
  2  4  1  0  0  0  0
  4  5  2  0  0  0  0
  5  6  1  0  0  0  0
  6  7  1  0  0  0  0
  7  8  2  0  0  0  0
  8  9  1  0  0  0  0
  9 10  1  0  0  0  0
 10 11  2  0  0  0  0
 10 12  1  0  0  0  0
 12 13  2  0  0  0  0
 13 14  1  0  0  0  0
 14 15  2  0  0  0  0
 15 16  1  0  0  0  0
 16 17  1  0  0  0  0
 17 18  2  0  0  0  0
 14 18  1  0  0  0  0
 18 19  1  0  0  0  0
 19 20  2  0  0  0  0
 12 20  1  0  0  0  0
 16 21  1  0  0  0  0
 21 22  1  0  0  0  0
 21 23  2  0  0  0  0
  8 24  1  0  0  0  0
 24 25  2  0  0  0  0
  6 25  1  0  0  0  0
 25 26  1  0  0  0  0
 26 27  2  0  0  0  0
  4 27  1  0  0  0  0
M  END
> <ID>
CPD_510

$$$$
CPD_515
  Mrv1822 09091914012D          

 29 32  0  0  0  0            999 V2000
   -4.9393   -0.8182    0.0000 C   0  0  0  0  0  0  0  0  0  0  0  0
   -4.1856   -1.1538    0.0000 O   0  0  0  0  0  0  0  0  0  0  0  0
   -4.0994   -1.9743    0.0000 C   0  0  0  0  0  0  0  0  0  0  0  0
   -3.3457   -2.3098    0.0000 C   0  0  0  0  0  0  0  0  0  0  0  0
   -3.2594   -3.1303    0.0000 C   0  0  0  0  0  0  0  0  0  0  0  0
   -3.9269   -3.6152    0.0000 C   0  0  0  0  0  0  0  0  0  0  0  0
   -4.6806   -3.2797    0.0000 C   0  0  0  0  0  0  0  0  0  0  0  0
   -4.7668   -2.4592    0.0000 C   0  0  0  0  0  0  0  0  0  0  0  0
   -2.6782   -1.8249    0.0000 N   0  0  0  0  0  0  0  0  0  0  0  0
   -2.6782   -0.9999    0.0000 N   0  0  0  0  0  0  0  0  0  0  0  0
   -1.8936   -0.7450    0.0000 N   0  0  0  0  0  0  0  0  0  0  0  0
   -1.4087   -1.4124    0.0000 C   0  0  0  0  0  0  0  0  0  0  0  0
   -0.5837   -1.4124    0.0000 C   0  0  0  0  0  0  0  0  0  0  0  0
   -0.1712   -2.1269    0.0000 O   0  0  0  0  0  0  0  0  0  0  0  0
   -0.1712   -0.6979    0.0000 N   0  0  0  0  0  0  0  0  0  0  0  0
    0.6538   -0.6979    0.0000 C   0  0  0  0  0  0  0  0  0  0  0  0
    1.1387   -0.0305    0.0000 N   0  0  0  0  0  0  0  0  0  0  0  0
    1.9233   -0.2854    0.0000 N   0  0  0  0  0  0  0  0  0  0  0  0
    2.6378    0.1271    0.0000 C   0  0  0  0  0  0  0  0  0  0  0  0
    3.3523   -0.2854    0.0000 C   0  0  0  0  0  0  0  0  0  0  0  0
    3.3523   -1.1104    0.0000 C   0  0  0  0  0  0  0  0  0  0  0  0
    2.6378   -1.5229    0.0000 N   0  0  0  0  0  0  0  0  0  0  0  0
    1.9233   -1.1104    0.0000 C   0  0  0  0  0  0  0  0  0  0  0  0
    1.1387   -1.3654    0.0000 N   0  0  0  0  0  0  0  0  0  0  0  0
    4.0668    0.1271    0.0000 C   0  0  0  0  0  0  0  0  0  0  0  0
    4.0668    0.9521    0.0000 C   0  0  0  0  0  0  0  0  0  0  0  0
    4.7812   -0.2854    0.0000 C   0  0  0  0  0  0  0  0  0  0  0  0
   -1.8936   -2.0799    0.0000 C   0  0  0  0  0  0  0  0  0  0  0  0
   -1.6387   -2.8645    0.0000 N   0  0  0  0  0  0  0  0  0  0  0  0
  1  2  1  0  0  0  0
  2  3  1  0  0  0  0
  3  4  2  0  0  0  0
  4  5  1  0  0  0  0
  5  6  2  0  0  0  0
  6  7  1  0  0  0  0
  7  8  2  0  0  0  0
  3  8  1  0  0  0  0
  4  9  1  0  0  0  0
  9 10  1  0  0  0  0
 10 11  2  0  0  0  0
 11 12  1  0  0  0  0
 12 13  1  0  0  0  0
 13 14  2  0  0  0  0
 13 15  1  0  0  0  0
 15 16  1  0  0  0  0
 16 17  2  0  0  0  0
 17 18  1  0  0  0  0
 18 19  1  0  0  0  0
 19 20  2  0  0  0  0
 20 21  1  0  0  0  0
 21 22  2  0  0  0  0
 22 23  1  0  0  0  0
 18 23  1  0  0  0  0
 23 24  2  0  0  0  0
 16 24  1  0  0  0  0
 20 25  1  0  0  0  0
 25 26  1  0  0  0  0
 25 27  1  0  0  0  0
 12 28  2  0  0  0  0
  9 28  1  0  0  0  0
 28 29  1  0  0  0  0
M  END
> <ID>
CPD_515

$$$$
CPD_520
  Mrv1822 09091914012D          

 27 30  0  0  0  0            999 V2000
    7.0714   -2.6021    0.0000 C   0  0  0  0  0  0  0  0  0  0  0  0
    7.0714   -1.7771    0.0000 C   0  0  0  0  0  0  0  0  0  0  0  0
    6.3569   -1.3646    0.0000 C   0  0  0  0  0  0  0  0  0  0  0  0
    6.3569   -0.5396    0.0000 C   0  0  0  0  0  0  0  0  0  0  0  0
    7.0714   -0.1271    0.0000 C   0  0  0  0  0  0  0  0  0  0  0  0
    7.0714    0.6979    0.0000 Cl  0  0  0  0  0  0  0  0  0  0  0  0
    7.7858   -0.5396    0.0000 C   0  0  0  0  0  0  0  0  0  0  0  0
    7.7858   -1.3646    0.0000 C   0  0  0  0  0  0  0  0  0  0  0  0
    5.6424   -0.1271    0.0000 C   0  0  0  0  0  0  0  0  0  0  0  0
    4.9279   -0.5396    0.0000 C   0  0  0  0  0  0  0  0  0  0  0  0
    4.2135   -0.1271    0.0000 N   0  0  0  0  0  0  0  0  0  0  0  0
    4.2135    0.6979    0.0000 C   0  0  0  0  0  0  0  0  0  0  0  0
    3.4990    1.1104    0.0000 N   0  0  0  0  0  0  0  0  0  0  0  0
    2.7845    0.6979    0.0000 C   0  0  0  0  0  0  0  0  0  0  0  0
    2.7845   -0.1271    0.0000 O   0  0  0  0  0  0  0  0  0  0  0  0
    2.0701    1.1104    0.0000 C   0  0  0  0  0  0  0  0  0  0  0  0
    1.3556    0.6979    0.0000 C   0  0  0  0  0  0  0  0  0  0  0  0
    0.6411    1.1104    0.0000 C   0  0  0  0  0  0  0  0  0  0  0  0
    0.6411    1.9354    0.0000 C   0  0  0  0  0  0  0  0  0  0  0  0
   -0.1435    2.1904    0.0000 N   0  0  0  0  0  0  0  0  0  0  0  0
   -0.6284    1.5229    0.0000 N   0  0  0  0  0  0  0  0  0  0  0  0
   -0.1435    0.8555    0.0000 C   0  0  0  0  0  0  0  0  0  0  0  0
   -0.3984    0.0709    0.0000 Br  0  0  0  0  0  0  0  0  0  0  0  0
    1.3556    2.3479    0.0000 C   0  0  0  0  0  0  0  0  0  0  0  0
    2.0701    1.9354    0.0000 C   0  0  0  0  0  0  0  0  0  0  0  0
    4.9279    1.1104    0.0000 C   0  0  0  0  0  0  0  0  0  0  0  0
    5.6424    0.6979    0.0000 C   0  0  0  0  0  0  0  0  0  0  0  0
  1  2  1  0  0  0  0
  2  3  2  0  0  0  0
  3  4  1  0  0  0  0
  4  5  2  0  0  0  0
  5  6  1  0  0  0  0
  5  7  1  0  0  0  0
  7  8  2  0  0  0  0
  2  8  1  0  0  0  0
  4  9  1  0  0  0  0
  9 10  2  0  0  0  0
 10 11  1  0  0  0  0
 11 12  2  0  0  0  0
 12 13  1  0  0  0  0
 13 14  1  0  0  0  0
 14 15  2  0  0  0  0
 14 16  1  0  0  0  0
 16 17  2  0  0  0  0
 17 18  1  0  0  0  0
 18 19  2  0  0  0  0
 19 20  1  0  0  0  0
 20 21  1  0  0  0  0
 21 22  2  0  0  0  0
 18 22  1  0  0  0  0
 22 23  1  0  0  0  0
 19 24  1  0  0  0  0
 24 25  2  0  0  0  0
 16 25  1  0  0  0  0
 12 26  1  0  0  0  0
 26 27  2  0  0  0  0
  9 27  1  0  0  0  0
M  END
> <ID>
CPD_520

$$$$
CPD_525
  Mrv1822 09091914012D          

 29 32  0  0  0  0            999 V2000
    1.4289    4.9500    0.0000 C   0  0  0  0  0  0  0  0  0  0  0  0
    0.7145    4.5375    0.0000 C   0  0  0  0  0  0  0  0  0  0  0  0
    0.7145    3.7125    0.0000 C   0  0  0  0  0  0  0  0  0  0  0  0
    0.0000    3.3000    0.0000 C   0  0  0  0  0  0  0  0  0  0  0  0
   -0.7145    3.7125    0.0000 C   0  0  0  0  0  0  0  0  0  0  0  0
   -1.4289    3.3000    0.0000 Cl  0  0  0  0  0  0  0  0  0  0  0  0
   -0.7145    4.5375    0.0000 C   0  0  0  0  0  0  0  0  0  0  0  0
    0.0000    4.9500    0.0000 C   0  0  0  0  0  0  0  0  0  0  0  0
    0.0000    2.4750    0.0000 C   0  0  0  0  0  0  0  0  0  0  0  0
    0.7145    2.0625    0.0000 C   0  0  0  0  0  0  0  0  0  0  0  0
    0.7145    1.2375    0.0000 N   0  0  0  0  0  0  0  0  0  0  0  0
    0.0000    0.8250    0.0000 C   0  0  0  0  0  0  0  0  0  0  0  0
    0.0000   -0.0000    0.0000 N   0  0  0  0  0  0  0  0  0  0  0  0
    0.7145   -0.4125    0.0000 C   0  0  0  0  0  0  0  0  0  0  0  0
    1.4289   -0.0000    0.0000 O   0  0  0  0  0  0  0  0  0  0  0  0
    0.7145   -1.2375    0.0000 C   0  0  0  0  0  0  0  0  0  0  0  0
    1.3819   -1.7224    0.0000 C   0  0  0  0  0  0  0  0  0  0  0  0
    1.1270   -2.5070    0.0000 N   0  0  0  0  0  0  0  0  0  0  0  0
    0.3020   -2.5070    0.0000 N   0  0  0  0  0  0  0  0  0  0  0  0
    0.0470   -1.7224    0.0000 C   0  0  0  0  0  0  0  0  0  0  0  0
    2.1665   -1.4675    0.0000 C   0  0  0  0  0  0  0  0  0  0  0  0
    2.3381   -0.6605    0.0000 C   0  0  0  0  0  0  0  0  0  0  0  0
    3.1227   -0.4056    0.0000 C   0  0  0  0  0  0  0  0  0  0  0  0
    3.7358   -0.9576    0.0000 C   0  0  0  0  0  0  0  0  0  0  0  0
    3.5642   -1.7646    0.0000 C   0  0  0  0  0  0  0  0  0  0  0  0
    2.7796   -2.0195    0.0000 C   0  0  0  0  0  0  0  0  0  0  0  0
    2.6081   -2.8265    0.0000 F   0  0  0  0  0  0  0  0  0  0  0  0
   -0.7145    1.2375    0.0000 C   0  0  0  0  0  0  0  0  0  0  0  0
   -0.7145    2.0625    0.0000 C   0  0  0  0  0  0  0  0  0  0  0  0
  1  2  1  0  0  0  0
  2  3  2  0  0  0  0
  3  4  1  0  0  0  0
  4  5  2  0  0  0  0
  5  6  1  0  0  0  0
  5  7  1  0  0  0  0
  7  8  2  0  0  0  0
  2  8  1  0  0  0  0
  4  9  1  0  0  0  0
  9 10  2  0  0  0  0
 10 11  1  0  0  0  0
 11 12  2  0  0  0  0
 12 13  1  0  0  0  0
 13 14  1  0  0  0  0
 14 15  2  0  0  0  0
 14 16  1  0  0  0  0
 16 17  2  0  0  0  0
 17 18  1  0  0  0  0
 18 19  1  0  0  0  0
 19 20  2  0  0  0  0
 16 20  1  0  0  0  0
 17 21  1  0  0  0  0
 21 22  2  0  0  0  0
 22 23  1  0  0  0  0
 23 24  2  0  0  0  0
 24 25  1  0  0  0  0
 25 26  2  0  0  0  0
 21 26  1  0  0  0  0
 26 27  1  0  0  0  0
 12 28  1  0  0  0  0
 28 29  2  0  0  0  0
  9 29  1  0  0  0  0
M  END
> <ID>
CPD_525

$$$$
CPD_530
  Mrv1822 09091914012D          

 29 31  0  0  0  0            999 V2000
   -1.7309   -7.2849    0.0000 C   0  0  0  0  0  0  0  0  0  0  0  0
   -1.0164   -7.6974    0.0000 C   0  0  0  0  0  0  0  0  0  0  0  0
   -1.0164   -8.5224    0.0000 O   0  0  0  0  0  0  0  0  0  0  0  0
   -0.3020   -7.2849    0.0000 N   0  0  0  0  0  0  0  0  0  0  0  0
    0.4125   -7.6974    0.0000 C   0  0  0  0  0  0  0  0  0  0  0  0
    1.1270   -7.2849    0.0000 C   0  0  0  0  0  0  0  0  0  0  0  0
    1.8414   -7.6974    0.0000 N   0  0  0  0  0  0  0  0  0  0  0  0
    2.5559   -7.2849    0.0000 C   0  0  0  0  0  0  0  0  0  0  0  0
    2.9684   -7.9993    0.0000 C   0  0  0  0  0  0  0  0  0  0  0  0
    2.5559   -8.7138    0.0000 C   0  0  0  0  0  0  0  0  0  0  0  0
    1.7309   -8.7138    0.0000 O   0  0  0  0  0  0  0  0  0  0  0  0
    2.9684   -9.4283    0.0000 N   0  0  0  0  0  0  0  0  0  0  0  0
    3.7934   -9.4283    0.0000 C   0  0  0  0  0  0  0  0  0  0  0  0
    4.2059   -8.7138    0.0000 N   0  0  0  0  0  0  0  0  0  0  0  0
    5.0309   -8.7138    0.0000 C   0  0  0  0  0  0  0  0  0  0  0  0
    5.4434   -9.4283    0.0000 C   0  0  0  0  0  0  0  0  0  0  0  0
    5.0309  -10.1427    0.0000 C   0  0  0  0  0  0  0  0  0  0  0  0
    4.2059  -10.1427    0.0000 C   0  0  0  0  0  0  0  0  0  0  0  0
    6.2684   -9.4283    0.0000 C   0  0  0  0  0  0  0  0  0  0  0  0
    6.6809   -8.7138    0.0000 C   0  0  0  0  0  0  0  0  0  0  0  0
    6.2684   -7.9993    0.0000 Cl  0  0  0  0  0  0  0  0  0  0  0  0
    7.5059   -8.7138    0.0000 C   0  0  0  0  0  0  0  0  0  0  0  0
    7.9184   -9.4283    0.0000 C   0  0  0  0  0  0  0  0  0  0  0  0
    7.5059  -10.1427    0.0000 C   0  0  0  0  0  0  0  0  0  0  0  0
    7.9184  -10.8572    0.0000 C   0  0  0  0  0  0  0  0  0  0  0  0
    6.6809  -10.1427    0.0000 C   0  0  0  0  0  0  0  0  0  0  0  0
    2.1434   -6.5704    0.0000 C   0  0  0  0  0  0  0  0  0  0  0  0
    2.8579   -6.1579    0.0000 O   0  0  0  0  0  0  0  0  0  0  0  0
    3.2704   -6.8724    0.0000 C   0  0  0  0  0  0  0  0  0  0  0  0
  1  2  1  0  0  0  0
  2  3  2  0  0  0  0
  2  4  1  0  0  0  0
  4  5  1  0  0  0  0
  5  6  1  0  0  0  0
  6  7  1  0  0  0  0
  7  8  1  0  0  0  0
  8  9  1  0  0  0  0
  9 10  1  0  0  0  0
 10 11  2  0  0  0  0
 10 12  1  0  0  0  0
 12 13  1  0  0  0  0
 13 14  2  0  0  0  0
 14 15  1  0  0  0  0
 15 16  2  0  0  0  0
 16 17  1  0  0  0  0
 17 18  2  0  0  0  0
 13 18  1  0  0  0  0
 16 19  1  0  0  0  0
 19 20  2  0  0  0  0
 20 21  1  0  0  0  0
 20 22  1  0  0  0  0
 22 23  2  0  0  0  0
 23 24  1  0  0  0  0
 24 25  1  0  0  0  0
 24 26  2  0  0  0  0
 19 26  1  0  0  0  0
  8 27  1  0  0  0  0
 27 28  1  0  0  0  0
 28 29  1  0  0  0  0
  8 29  1  0  0  0  0
M  END
> <ID>
CPD_530

$$$$
CPD_535
  Mrv1822 09091914012D          

 26 28  0  0  0  0            999 V2000
    1.4289   -4.9500    0.0000 C   0  0  0  0  0  0  0  0  0  0  0  0
    2.1434   -5.3625    0.0000 C   0  0  0  0  0  0  0  0  0  0  0  0
    2.1434   -6.1875    0.0000 N   0  0  0  0  0  0  0  0  0  0  0  0
    2.8579   -6.6000    0.0000 C   0  0  0  0  0  0  0  0  0  0  0  0
    2.8579   -7.4250    0.0000 C   0  0  0  0  0  0  0  0  0  0  0  0
    2.1434   -7.8375    0.0000 C   0  0  0  0  0  0  0  0  0  0  0  0
    1.4289   -7.4250    0.0000 C   0  0  0  0  0  0  0  0  0  0  0  0
    1.4289   -6.6000    0.0000 C   0  0  0  0  0  0  0  0  0  0  0  0
    2.1434   -8.6625    0.0000 N   0  0  0  0  0  0  0  0  0  0  0  0
    2.8579   -9.0750    0.0000 C   0  0  0  0  0  0  0  0  0  0  0  0
    3.5724   -8.6625    0.0000 O   0  0  0  0  0  0  0  0  0  0  0  0
    2.8579   -9.9000    0.0000 C   0  0  0  0  0  0  0  0  0  0  0  0
    3.5724  -10.3125    0.0000 C   0  0  0  0  0  0  0  0  0  0  0  0
    3.5724  -11.1375    0.0000 C   0  0  0  0  0  0  0  0  0  0  0  0
    2.8579  -11.5500    0.0000 C   0  0  0  0  0  0  0  0  0  0  0  0
    2.1434  -11.1375    0.0000 C   0  0  0  0  0  0  0  0  0  0  0  0
    2.1434  -10.3125    0.0000 C   0  0  0  0  0  0  0  0  0  0  0  0
    2.8579  -12.3750    0.0000 C   0  0  0  0  0  0  0  0  0  0  0  0
    2.1434  -12.7875    0.0000 O   0  0  0  0  0  0  0  0  0  0  0  0
    3.5724  -12.7875    0.0000 N   0  0  0  0  0  0  0  0  0  0  0  0
    3.5724  -13.6125    0.0000 C   0  0  0  0  0  0  0  0  0  0  0  0
    4.2868  -14.0250    0.0000 C   0  0  0  0  0  0  0  0  0  0  0  0
    4.2868  -14.8500    0.0000 C   0  0  0  0  0  0  0  0  0  0  0  0
    3.5724  -15.2625    0.0000 C   0  0  0  0  0  0  0  0  0  0  0  0
    2.8579  -14.8500    0.0000 C   0  0  0  0  0  0  0  0  0  0  0  0
    2.8579  -14.0250    0.0000 C   0  0  0  0  0  0  0  0  0  0  0  0
  1  2  1  0  0  0  0
  2  3  1  0  0  0  0
  3  4  1  0  0  0  0
  4  5  1  0  0  0  0
  5  6  1  0  0  0  0
  6  7  1  0  0  0  0
  7  8  1  0  0  0  0
  3  8  1  0  0  0  0
  6  9  1  0  0  0  0
  9 10  1  0  0  0  0
 10 11  2  0  0  0  0
 10 12  1  0  0  0  0
 12 13  2  0  0  0  0
 13 14  1  0  0  0  0
 14 15  2  0  0  0  0
 15 16  1  0  0  0  0
 16 17  2  0  0  0  0
 12 17  1  0  0  0  0
 15 18  1  0  0  0  0
 18 19  2  0  0  0  0
 18 20  1  0  0  0  0
 20 21  1  0  0  0  0
 21 22  1  0  0  0  0
 22 23  1  0  0  0  0
 23 24  1  0  0  0  0
 24 25  1  0  0  0  0
 25 26  1  0  0  0  0
 21 26  1  0  0  0  0
M  END
> <ID>
CPD_535

$$$$
CPD_540
  Mrv1822 09091914012D          

 25 27  0  0  0  0            999 V2000
    0.7145   -3.7125    0.0000 C   0  0  0  0  0  0  0  0  0  0  0  0
    1.4289   -4.1250    0.0000 C   0  0  0  0  0  0  0  0  0  0  0  0
    1.4289   -4.9500    0.0000 N   0  0  0  0  0  0  0  0  0  0  0  0
    2.1434   -5.3625    0.0000 C   0  0  0  0  0  0  0  0  0  0  0  0
    2.1434   -6.1875    0.0000 C   0  0  0  0  0  0  0  0  0  0  0  0
    1.4289   -6.6000    0.0000 C   0  0  0  0  0  0  0  0  0  0  0  0
    0.7145   -6.1875    0.0000 C   0  0  0  0  0  0  0  0  0  0  0  0
    0.7145   -5.3625    0.0000 C   0  0  0  0  0  0  0  0  0  0  0  0
    1.4289   -7.4250    0.0000 N   0  0  0  0  0  0  0  0  0  0  0  0
    2.1434   -7.8375    0.0000 C   0  0  0  0  0  0  0  0  0  0  0  0
    2.8579   -7.4250    0.0000 O   0  0  0  0  0  0  0  0  0  0  0  0
    2.1434   -8.6625    0.0000 C   0  0  0  0  0  0  0  0  0  0  0  0
    2.8579   -9.0750    0.0000 C   0  0  0  0  0  0  0  0  0  0  0  0
    2.8579   -9.9000    0.0000 C   0  0  0  0  0  0  0  0  0  0  0  0
    2.1434  -10.3125    0.0000 C   0  0  0  0  0  0  0  0  0  0  0  0
    1.4289   -9.9000    0.0000 C   0  0  0  0  0  0  0  0  0  0  0  0
    1.4289   -9.0750    0.0000 C   0  0  0  0  0  0  0  0  0  0  0  0
    2.1434  -11.1375    0.0000 N   0  0  0  0  0  0  0  0  0  0  0  0
    2.8579  -11.5500    0.0000 C   0  0  0  0  0  0  0  0  0  0  0  0
    2.8579  -12.3750    0.0000 C   0  0  0  0  0  0  0  0  0  0  0  0
    2.1434  -12.7875    0.0000 C   0  0  0  0  0  0  0  0  0  0  0  0
    2.6737  -13.4195    0.0000 C   0  0  0  0  0  0  0  0  0  0  0  0
    1.6131  -13.4195    0.0000 C   0  0  0  0  0  0  0  0  0  0  0  0
    1.4289  -12.3750    0.0000 C   0  0  0  0  0  0  0  0  0  0  0  0
    1.4289  -11.5500    0.0000 C   0  0  0  0  0  0  0  0  0  0  0  0
  1  2  1  0  0  0  0
  2  3  1  0  0  0  0
  3  4  1  0  0  0  0
  4  5  1  0  0  0  0
  5  6  1  0  0  0  0
  6  7  1  0  0  0  0
  7  8  1  0  0  0  0
  3  8  1  0  0  0  0
  6  9  1  0  0  0  0
  9 10  1  0  0  0  0
 10 11  2  0  0  0  0
 10 12  1  0  0  0  0
 12 13  2  0  0  0  0
 13 14  1  0  0  0  0
 14 15  2  0  0  0  0
 15 16  1  0  0  0  0
 16 17  2  0  0  0  0
 12 17  1  0  0  0  0
 15 18  1  0  0  0  0
 18 19  1  0  0  0  0
 19 20  1  0  0  0  0
 20 21  1  0  0  0  0
 21 22  1  0  0  0  0
 21 23  1  0  0  0  0
 21 24  1  0  0  0  0
 24 25  1  0  0  0  0
 18 25  1  0  0  0  0
M  END
> <ID>
CPD_540

$$$$
CPD_545
  Mrv1822 09091914012D          

 24 26  0  0  0  0            999 V2000
   -2.5644    0.4841    0.0000 C   0  0  0  0  0  0  0  0  0  0  0  0
   -1.7575    0.3126    0.0000 C   0  0  0  0  0  0  0  0  0  0  0  0
   -1.2054    0.9256    0.0000 N   0  0  0  0  0  0  0  0  0  0  0  0
   -0.3984    0.7541    0.0000 C   0  0  0  0  0  0  0  0  0  0  0  0
    0.1536    1.3672    0.0000 O   0  0  0  0  0  0  0  0  0  0  0  0
   -0.1435   -0.0305    0.0000 C   0  0  0  0  0  0  0  0  0  0  0  0
   -0.6284   -0.6979    0.0000 C   0  0  0  0  0  0  0  0  0  0  0  0
   -0.1435   -1.3654    0.0000 C   0  0  0  0  0  0  0  0  0  0  0  0
    0.6411   -1.1104    0.0000 C   0  0  0  0  0  0  0  0  0  0  0  0
    0.6411   -0.2854    0.0000 C   0  0  0  0  0  0  0  0  0  0  0  0
    1.3556    0.1271    0.0000 C   0  0  0  0  0  0  0  0  0  0  0  0
    2.0701   -0.2854    0.0000 C   0  0  0  0  0  0  0  0  0  0  0  0
    2.7845    0.1271    0.0000 Cl  0  0  0  0  0  0  0  0  0  0  0  0
    2.0701   -1.1104    0.0000 C   0  0  0  0  0  0  0  0  0  0  0  0
    1.3556   -1.5229    0.0000 C   0  0  0  0  0  0  0  0  0  0  0  0
   -1.4604    1.7103    0.0000 C   0  0  0  0  0  0  0  0  0  0  0  0
   -2.2673    1.8818    0.0000 C   0  0  0  0  0  0  0  0  0  0  0  0
   -2.8194    1.2687    0.0000 C   0  0  0  0  0  0  0  0  0  0  0  0
   -3.3714    0.6556    0.0000 N   0  0  0  0  0  0  0  0  0  0  0  0
   -2.5223    2.6664    0.0000 C   0  0  0  0  0  0  0  0  0  0  0  0
   -3.3292    2.8379    0.0000 Br  0  0  0  0  0  0  0  0  0  0  0  0
   -1.9702    3.2795    0.0000 C   0  0  0  0  0  0  0  0  0  0  0  0
   -1.1633    3.1080    0.0000 C   0  0  0  0  0  0  0  0  0  0  0  0
   -0.9083    2.3234    0.0000 C   0  0  0  0  0  0  0  0  0  0  0  0
  1  2  1  0  0  0  0
  2  3  1  0  0  0  0
  3  4  1  0  0  0  0
  4  5  2  0  0  0  0
  4  6  1  0  0  0  0
  6  7  1  0  0  0  0
  7  8  1  0  0  0  0
  8  9  1  0  0  0  0
  9 10  2  0  0  0  0
  6 10  1  0  0  0  0
 10 11  1  0  0  0  0
 11 12  2  0  0  0  0
 12 13  1  0  0  0  0
 12 14  1  0  0  0  0
 14 15  2  0  0  0  0
  9 15  1  0  0  0  0
  3 16  1  0  0  0  0
 16 17  2  0  0  0  0
 17 18  1  0  0  0  0
 18 19  3  0  0  0  0
 17 20  1  0  0  0  0
 20 21  1  0  0  0  0
 20 22  2  0  0  0  0
 22 23  1  0  0  0  0
 23 24  2  0  0  0  0
 16 24  1  0  0  0  0
M  END
> <ID>
CPD_545

$$$$
CPD_550
  Mrv1822 09091914012D          

 30 32  0  0  0  0            999 V2000
    0.7145   -2.0625    0.0000 C   0  0  0  0  0  0  0  0  0  0  0  0
    1.4289   -1.6500    0.0000 C   0  0  0  0  0  0  0  0  0  0  0  0
    2.1434   -2.0625    0.0000 N   0  0  0  0  0  0  0  0  0  0  0  0
    2.8579   -1.6500    0.0000 C   0  0  0  0  0  0  0  0  0  0  0  0
    2.8579   -0.8250    0.0000 O   0  0  0  0  0  0  0  0  0  0  0  0
    3.5724   -2.0625    0.0000 C   0  0  0  0  0  0  0  0  0  0  0  0
    4.2868   -1.6500    0.0000 C   0  0  0  0  0  0  0  0  0  0  0  0
    5.0013   -2.0625    0.0000 C   0  0  0  0  0  0  0  0  0  0  0  0
    5.0875   -2.8830    0.0000 N   0  0  0  0  0  0  0  0  0  0  0  0
    5.8945   -3.0545    0.0000 C   0  0  0  0  0  0  0  0  0  0  0  0
    6.2301   -3.8082    0.0000 C   0  0  0  0  0  0  0  0  0  0  0  0
    6.3070   -2.3400    0.0000 N   0  0  0  0  0  0  0  0  0  0  0  0
    5.7550   -1.7269    0.0000 N   0  0  0  0  0  0  0  0  0  0  0  0
    5.9265   -0.9200    0.0000 C   0  0  0  0  0  0  0  0  0  0  0  0
    5.3134   -0.3679    0.0000 C   0  0  0  0  0  0  0  0  0  0  0  0
    5.4849    0.4390    0.0000 C   0  0  0  0  0  0  0  0  0  0  0  0
    6.2696    0.6940    0.0000 C   0  0  0  0  0  0  0  0  0  0  0  0
    6.4411    1.5009    0.0000 O   0  0  0  0  0  0  0  0  0  0  0  0
    7.2257    1.7559    0.0000 C   0  0  0  0  0  0  0  0  0  0  0  0
    6.8826    0.1419    0.0000 C   0  0  0  0  0  0  0  0  0  0  0  0
    6.7111   -0.6650    0.0000 C   0  0  0  0  0  0  0  0  0  0  0  0
    2.1434   -2.8875    0.0000 C   0  0  0  0  0  0  0  0  0  0  0  0
    2.8579   -3.3000    0.0000 C   0  0  0  0  0  0  0  0  0  0  0  0
    3.5724   -2.8875    0.0000 C   0  0  0  0  0  0  0  0  0  0  0  0
    4.2868   -2.4750    0.0000 N   0  0  0  0  0  0  0  0  0  0  0  0
    2.8579   -4.1250    0.0000 C   0  0  0  0  0  0  0  0  0  0  0  0
    3.5724   -4.5375    0.0000 Br  0  0  0  0  0  0  0  0  0  0  0  0
    2.1434   -4.5375    0.0000 C   0  0  0  0  0  0  0  0  0  0  0  0
    1.4289   -4.1250    0.0000 C   0  0  0  0  0  0  0  0  0  0  0  0
    1.4289   -3.3000    0.0000 C   0  0  0  0  0  0  0  0  0  0  0  0
  1  2  1  0  0  0  0
  2  3  1  0  0  0  0
  3  4  1  0  0  0  0
  4  5  2  0  0  0  0
  4  6  1  0  0  0  0
  6  7  1  0  0  0  0
  7  8  1  0  0  0  0
  8  9  2  0  0  0  0
  9 10  1  0  0  0  0
 10 11  1  0  0  0  0
 10 12  2  0  0  0  0
 12 13  1  0  0  0  0
  8 13  1  0  0  0  0
 13 14  1  0  0  0  0
 14 15  2  0  0  0  0
 15 16  1  0  0  0  0
 16 17  2  0  0  0  0
 17 18  1  0  0  0  0
 18 19  1  0  0  0  0
 17 20  1  0  0  0  0
 20 21  2  0  0  0  0
 14 21  1  0  0  0  0
  3 22  1  0  0  0  0
 22 23  2  0  0  0  0
 23 24  1  0  0  0  0
 24 25  3  0  0  0  0
 23 26  1  0  0  0  0
 26 27  1  0  0  0  0
 26 28  2  0  0  0  0
 28 29  1  0  0  0  0
 29 30  2  0  0  0  0
 22 30  1  0  0  0  0
M  END
> <ID>
CPD_550

$$$$
CPD_555
  Mrv1822 09091914012D          

 19 19  0  0  1  0            999 V2000
   -0.8250   -1.6500    0.0000 C   0  0  0  0  0  0  0  0  0  0  0  0
    0.0000   -1.6500    0.0000 C   0  0  0  0  0  0  0  0  0  0  0  0
    0.4125   -0.9355    0.0000 N   0  0  0  0  0  0  0  0  0  0  0  0
    1.2375   -0.9355    0.0000 C   0  0  0  0  0  0  0  0  0  0  0  0
    1.6500   -0.2211    0.0000 O   0  0  0  0  0  0  0  0  0  0  0  0
    1.6500   -1.6500    0.0000 C   0  0  2  0  0  0  0  0  0  0  0  0
    1.2375   -2.3645    0.0000 N   0  0  0  0  0  0  0  0  0  0  0  0
    2.4750   -1.6500    0.0000 C   0  0  0  0  0  0  0  0  0  0  0  0
    2.8875   -2.3645    0.0000 C   0  0  0  0  0  0  0  0  0  0  0  0
    2.8875   -0.9355    0.0000 C   0  0  0  0  0  0  0  0  0  0  0  0
    0.0000   -0.2211    0.0000 C   0  0  0  0  0  0  0  0  0  0  0  0
   -0.8250   -0.2211    0.0000 C   0  0  0  0  0  0  0  0  0  0  0  0
   -1.2375   -0.9355    0.0000 C   0  0  0  0  0  0  0  0  0  0  0  0
   -1.6500   -1.6500    0.0000 N   0  0  0  0  0  0  0  0  0  0  0  0
   -1.2375    0.4934    0.0000 C   0  0  0  0  0  0  0  0  0  0  0  0
   -2.0625    0.4934    0.0000 Br  0  0  0  0  0  0  0  0  0  0  0  0
   -0.8250    1.2079    0.0000 C   0  0  0  0  0  0  0  0  0  0  0  0
    0.0000    1.2079    0.0000 C   0  0  0  0  0  0  0  0  0  0  0  0
    0.4125    0.4934    0.0000 C   0  0  0  0  0  0  0  0  0  0  0  0
  1  2  1  0  0  0  0
  2  3  1  0  0  0  0
  3  4  1  0  0  0  0
  4  5  2  0  0  0  0
  6  4  1  0  0  0  0
  6  7  1  1  0  0  0
  6  8  1  0  0  0  0
  8  9  1  0  0  0  0
  8 10  1  0  0  0  0
  3 11  1  0  0  0  0
 11 12  2  0  0  0  0
 12 13  1  0  0  0  0
 13 14  3  0  0  0  0
 12 15  1  0  0  0  0
 15 16  1  0  0  0  0
 15 17  2  0  0  0  0
 17 18  1  0  0  0  0
 18 19  2  0  0  0  0
 11 19  1  0  0  0  0
M  END
> <ID>
CPD_555

$$$$
CPD_560
  Mrv1822 09091914012D          

 35 37  0  0  1  0            999 V2000
   -3.1400    3.1243    0.0000 C   0  0  0  0  0  0  0  0  0  0  0  0
   -2.3497    2.8875    0.0000 C   0  0  0  0  0  0  0  0  0  0  0  0
   -3.1400    2.6507    0.0000 C   0  0  0  0  0  0  0  0  0  0  0  0
   -2.1434    3.7125    0.0000 C   0  0  1  0  0  0  0  0  0  0  0  0
   -2.1434    4.5375    0.0000 C   0  0  0  0  0  0  0  0  0  0  0  0
   -2.8579    3.3000    0.0000 C   0  0  0  0  0  0  0  0  0  0  0  0
   -2.8579    2.4750    0.0000 C   0  0  0  0  0  0  0  0  0  0  0  0
   -2.1434    2.0625    0.0000 C   0  0  1  0  0  0  0  0  0  0  0  0
   -2.1434    1.2375    0.0000 C   0  0  0  0  0  0  0  0  0  0  0  0
   -1.4289    2.4750    0.0000 C   0  0  2  0  0  0  0  0  0  0  0  0
   -0.7145    2.0625    0.0000 C   0  0  0  0  0  0  0  0  0  0  0  0
   -0.0000    2.4750    0.0000 C   0  0  0  0  0  0  0  0  0  0  0  0
   -0.0000    3.3000    0.0000 O   0  0  0  0  0  0  0  0  0  0  0  0
    0.7145    2.0625    0.0000 N   0  0  0  0  0  0  0  0  0  0  0  0
    1.4289    2.4750    0.0000 C   0  0  0  0  0  0  0  0  0  0  0  0
    2.1434    2.0625    0.0000 C   0  0  0  0  0  0  0  0  0  0  0  0
    2.8579    2.4750    0.0000 O   0  0  0  0  0  0  0  0  0  0  0  0
    3.5724    2.0625    0.0000 C   0  0  0  0  0  0  0  0  0  0  0  0
    4.2868    2.4750    0.0000 C   0  0  0  0  0  0  0  0  0  0  0  0
    5.0013    2.0625    0.0000 O   0  0  0  0  0  0  0  0  0  0  0  0
    5.7158    2.4750    0.0000 C   0  0  0  0  0  0  0  0  0  0  0  0
    6.4302    2.0625    0.0000 C   0  0  0  0  0  0  0  0  0  0  0  0
    7.1447    2.4750    0.0000 O   0  0  0  0  0  0  0  0  0  0  0  0
    7.8592    2.0625    0.0000 C   0  0  0  0  0  0  0  0  0  0  0  0
    8.5737    2.4750    0.0000 C   0  0  0  0  0  0  0  0  0  0  0  0
    9.2881    2.0625    0.0000 O   0  0  0  0  0  0  0  0  0  0  0  0
   10.0026    2.4750    0.0000 C   0  0  0  0  0  0  0  0  0  0  0  0
   10.7171    2.0625    0.0000 C   0  0  0  0  0  0  0  0  0  0  0  0
   11.4315    2.4750    0.0000 C   0  0  0  0  0  0  0  0  0  0  0  0
   12.1460    2.0625    0.0000 C   0  0  0  0  0  0  0  0  0  0  0  0
   12.1460    1.2375    0.0000 C   0  0  0  0  0  0  0  0  0  0  0  0
   11.4315    0.8250    0.0000 C   0  0  0  0  0  0  0  0  0  0  0  0
   10.7171    1.2375    0.0000 C   0  0  0  0  0  0  0  0  0  0  0  0
   -1.4289    3.3000    0.0000 C   0  0  1  0  0  0  0  0  0  0  0  0
   -0.7145    3.7125    0.0000 O   0  0  0  0  0  0  0  0  0  0  0  0
  1  2  1  0  0  0  0
  2  3  1  0  0  0  0
  4  2  1  0  0  0  0
  4  5  1  6  0  0  0
  4  6  1  0  0  0  0
  6  7  1  0  0  0  0
  8  7  1  0  0  0  0
  8  2  1  0  0  0  0
  8  9  1  6  0  0  0
 10  8  1  0  0  0  0
 10 11  1  1  0  0  0
 11 12  1  0  0  0  0
 12 13  2  0  0  0  0
 12 14  1  0  0  0  0
 14 15  1  0  0  0  0
 15 16  1  0  0  0  0
 16 17  1  0  0  0  0
 17 18  1  0  0  0  0
 18 19  1  0  0  0  0
 19 20  1  0  0  0  0
 20 21  1  0  0  0  0
 21 22  1  0  0  0  0
 22 23  1  0  0  0  0
 23 24  1  0  0  0  0
 24 25  1  0  0  0  0
 25 26  1  0  0  0  0
 26 27  1  0  0  0  0
 27 28  1  0  0  0  0
 28 29  2  0  0  0  0
 29 30  1  0  0  0  0
 30 31  2  0  0  0  0
 31 32  1  0  0  0  0
 32 33  2  0  0  0  0
 28 33  1  0  0  0  0
 10 34  1  0  0  0  0
 34  4  1  0  0  0  0
 34 35  1  6  0  0  0
M  END
> <ID>
CPD_560

$$$$
CPD_565
  Mrv1822 09091914012D          

 38 40  0  0  0  0            999 V2000
   -3.5724   -3.7125    0.0000 O   0  0  0  0  0  0  0  0  0  0  0  0
   -3.5724   -2.8875    0.0000 C   0  0  0  0  0  0  0  0  0  0  0  0
   -2.8579   -2.4750    0.0000 N   0  0  0  0  0  0  0  0  0  0  0  0
   -2.1434   -2.8875    0.0000 C   0  0  0  0  0  0  0  0  0  0  0  0
   -1.4289   -2.4750    0.0000 C   0  0  0  0  0  0  0  0  0  0  0  0
   -0.7145   -2.8875    0.0000 O   0  0  0  0  0  0  0  0  0  0  0  0
    0.0000   -2.4750    0.0000 C   0  0  0  0  0  0  0  0  0  0  0  0
    0.7145   -2.8875    0.0000 C   0  0  0  0  0  0  0  0  0  0  0  0
    1.4289   -2.4750    0.0000 O   0  0  0  0  0  0  0  0  0  0  0  0
    2.1434   -2.8875    0.0000 C   0  0  0  0  0  0  0  0  0  0  0  0
    2.8579   -2.4750    0.0000 C   0  0  0  0  0  0  0  0  0  0  0  0
    3.5724   -2.8875    0.0000 O   0  0  0  0  0  0  0  0  0  0  0  0
    4.2868   -2.4750    0.0000 C   0  0  0  0  0  0  0  0  0  0  0  0
    5.0013   -2.8875    0.0000 C   0  0  0  0  0  0  0  0  0  0  0  0
    5.7158   -2.4750    0.0000 O   0  0  0  0  0  0  0  0  0  0  0  0
    6.4302   -2.8875    0.0000 C   0  0  0  0  0  0  0  0  0  0  0  0
    7.1447   -2.4750    0.0000 C   0  0  0  0  0  0  0  0  0  0  0  0
    7.1447   -1.6500    0.0000 C   0  0  0  0  0  0  0  0  0  0  0  0
    7.8592   -1.2375    0.0000 C   0  0  0  0  0  0  0  0  0  0  0  0
    8.5737   -1.6500    0.0000 C   0  0  0  0  0  0  0  0  0  0  0  0
    8.5737   -2.4750    0.0000 C   0  0  0  0  0  0  0  0  0  0  0  0
    7.8592   -2.8875    0.0000 C   0  0  0  0  0  0  0  0  0  0  0  0
   -4.2868   -2.4750    0.0000 C   0  0  0  0  0  0  0  0  0  0  0  0
   -5.0013   -2.8875    0.0000 C   0  0  0  0  0  0  0  0  0  0  0  0
   -5.7158   -2.4750    0.0000 C   0  0  0  0  0  0  0  0  0  0  0  0
   -5.7158   -1.6500    0.0000 N   0  0  0  0  0  0  0  0  0  0  0  0
   -5.0013   -1.2375    0.0000 C   0  0  0  0  0  0  0  0  0  0  0  0
   -4.2868   -1.6500    0.0000 C   0  0  0  0  0  0  0  0  0  0  0  0
   -6.4302   -1.2375    0.0000 C   0  0  0  0  0  0  0  0  0  0  0  0
   -7.1447   -1.6500    0.0000 O   0  0  0  0  0  0  0  0  0  0  0  0
   -6.4302   -0.4125    0.0000 O   0  0  0  0  0  0  0  0  0  0  0  0
   -7.1447   -0.0000    0.0000 C   0  0  0  0  0  0  0  0  0  0  0  0
   -7.8592   -0.4125    0.0000 C   0  0  0  0  0  0  0  0  0  0  0  0
   -7.8592   -1.2375    0.0000 C   0  0  0  0  0  0  0  0  0  0  0  0
   -8.5737   -1.6500    0.0000 C   0  0  0  0  0  0  0  0  0  0  0  0
   -9.2881   -1.2375    0.0000 C   0  0  0  0  0  0  0  0  0  0  0  0
   -9.2881   -0.4125    0.0000 C   0  0  0  0  0  0  0  0  0  0  0  0
   -8.5737   -0.0000    0.0000 C   0  0  0  0  0  0  0  0  0  0  0  0
  1  2  2  0  0  0  0
  2  3  1  0  0  0  0
  3  4  1  0  0  0  0
  4  5  1  0  0  0  0
  5  6  1  0  0  0  0
  6  7  1  0  0  0  0
  7  8  1  0  0  0  0
  8  9  1  0  0  0  0
  9 10  1  0  0  0  0
 10 11  1  0  0  0  0
 11 12  1  0  0  0  0
 12 13  1  0  0  0  0
 13 14  1  0  0  0  0
 14 15  1  0  0  0  0
 15 16  1  0  0  0  0
 16 17  1  0  0  0  0
 17 18  2  0  0  0  0
 18 19  1  0  0  0  0
 19 20  2  0  0  0  0
 20 21  1  0  0  0  0
 21 22  2  0  0  0  0
 17 22  1  0  0  0  0
  2 23  1  0  0  0  0
 23 24  1  0  0  0  0
 24 25  1  0  0  0  0
 25 26  1  0  0  0  0
 26 27  1  0  0  0  0
 27 28  1  0  0  0  0
 23 28  1  0  0  0  0
 26 29  1  0  0  0  0
 29 30  2  0  0  0  0
 29 31  1  0  0  0  0
 31 32  1  0  0  0  0
 32 33  1  0  0  0  0
 33 34  2  0  0  0  0
 34 35  1  0  0  0  0
 35 36  2  0  0  0  0
 36 37  1  0  0  0  0
 37 38  2  0  0  0  0
 33 38  1  0  0  0  0
M  END
> <ID>
CPD_565

$$$$
CPD_570
  Mrv1822 09091914012D          

 29 30  0  0  0  0            999 V2000
    0.7145   -6.1875    0.0000 C   0  0  0  0  0  0  0  0  0  0  0  0
    1.4289   -6.6000    0.0000 C   0  0  0  0  0  0  0  0  0  0  0  0
    2.1434   -6.1875    0.0000 C   0  0  0  0  0  0  0  0  0  0  0  0
    2.8579   -6.6000    0.0000 C   0  0  0  0  0  0  0  0  0  0  0  0
    3.5724   -6.1875    0.0000 C   0  0  0  0  0  0  0  0  0  0  0  0
    4.2868   -6.6000    0.0000 C   0  0  0  0  0  0  0  0  0  0  0  0
    4.2868   -7.4250    0.0000 O   0  0  0  0  0  0  0  0  0  0  0  0
    5.0013   -6.1875    0.0000 N   0  0  0  0  0  0  0  0  0  0  0  0
    5.7158   -6.6000    0.0000 C   0  0  0  0  0  0  0  0  0  0  0  0
    6.4302   -6.1875    0.0000 C   0  0  0  0  0  0  0  0  0  0  0  0
    7.1447   -6.6000    0.0000 C   0  0  0  0  0  0  0  0  0  0  0  0
    7.8592   -6.1875    0.0000 F   0  0  0  0  0  0  0  0  0  0  0  0
    7.1447   -7.4250    0.0000 C   0  0  0  0  0  0  0  0  0  0  0  0
    7.8592   -7.8375    0.0000 N   0  0  0  0  0  0  0  0  0  0  0  0
    8.5737   -7.4250    0.0000 C   0  0  0  0  0  0  0  0  0  0  0  0
    9.2881   -7.8375    0.0000 C   0  0  0  0  0  0  0  0  0  0  0  0
    9.2881   -8.6625    0.0000 N   0  0  0  0  0  0  0  0  0  0  0  0
    8.5737   -9.0750    0.0000 C   0  0  0  0  0  0  0  0  0  0  0  0
    7.8592   -8.6625    0.0000 C   0  0  0  0  0  0  0  0  0  0  0  0
   10.0026   -9.0750    0.0000 C   0  0  0  0  0  0  0  0  0  0  0  0
   10.7171   -8.6625    0.0000 O   0  0  0  0  0  0  0  0  0  0  0  0
   10.0026   -9.9000    0.0000 O   0  0  0  0  0  0  0  0  0  0  0  0
   10.7171  -10.3125    0.0000 C   0  0  0  0  0  0  0  0  0  0  0  0
   11.4315  -10.7250    0.0000 C   0  0  0  0  0  0  0  0  0  0  0  0
   10.3046  -11.0270    0.0000 C   0  0  0  0  0  0  0  0  0  0  0  0
   11.1296   -9.5980    0.0000 C   0  0  0  0  0  0  0  0  0  0  0  0
    6.4302   -7.8375    0.0000 C   0  0  0  0  0  0  0  0  0  0  0  0
    6.4302   -8.6625    0.0000 F   0  0  0  0  0  0  0  0  0  0  0  0
    5.7158   -7.4250    0.0000 C   0  0  0  0  0  0  0  0  0  0  0  0
  1  2  1  0  0  0  0
  2  3  1  0  0  0  0
  3  4  1  0  0  0  0
  4  5  1  0  0  0  0
  5  6  1  0  0  0  0
  6  7  2  0  0  0  0
  6  8  1  0  0  0  0
  8  9  1  0  0  0  0
  9 10  2  0  0  0  0
 10 11  1  0  0  0  0
 11 12  1  0  0  0  0
 11 13  2  0  0  0  0
 13 14  1  0  0  0  0
 14 15  1  0  0  0  0
 15 16  1  0  0  0  0
 16 17  1  0  0  0  0
 17 18  1  0  0  0  0
 18 19  1  0  0  0  0
 14 19  1  0  0  0  0
 17 20  1  0  0  0  0
 20 21  2  0  0  0  0
 20 22  1  0  0  0  0
 22 23  1  0  0  0  0
 23 24  1  0  0  0  0
 23 25  1  0  0  0  0
 23 26  1  0  0  0  0
 13 27  1  0  0  0  0
 27 28  1  0  0  0  0
 27 29  2  0  0  0  0
  9 29  1  0  0  0  0
M  END
> <ID>
CPD_570

$$$$
CPD_575
  Mrv1822 09091914012D          

 33 35  0  0  0  0            999 V2000
   -6.4302    0.4125    0.0000 C   0  0  0  0  0  0  0  0  0  0  0  0
   -5.7158    0.0000    0.0000 C   0  0  0  0  0  0  0  0  0  0  0  0
   -6.1283   -0.7145    0.0000 C   0  0  0  0  0  0  0  0  0  0  0  0
   -5.3033    0.7145    0.0000 C   0  0  0  0  0  0  0  0  0  0  0  0
   -5.0013   -0.4125    0.0000 O   0  0  0  0  0  0  0  0  0  0  0  0
   -4.2868    0.0000    0.0000 C   0  0  0  0  0  0  0  0  0  0  0  0
   -4.2868    0.8250    0.0000 O   0  0  0  0  0  0  0  0  0  0  0  0
   -3.5724   -0.4125    0.0000 N   0  0  0  0  0  0  0  0  0  0  0  0
   -2.8579    0.0000    0.0000 C   0  0  0  0  0  0  0  0  0  0  0  0
   -2.1434   -0.4125    0.0000 C   0  0  0  0  0  0  0  0  0  0  0  0
   -2.1434   -1.2375    0.0000 N   0  0  0  0  0  0  0  0  0  0  0  0
   -2.8579   -1.6500    0.0000 C   0  0  0  0  0  0  0  0  0  0  0  0
   -3.5724   -1.2375    0.0000 C   0  0  0  0  0  0  0  0  0  0  0  0
   -1.4289   -1.6500    0.0000 C   0  0  0  0  0  0  0  0  0  0  0  0
   -0.7145   -1.2375    0.0000 C   0  0  0  0  0  0  0  0  0  0  0  0
   -0.7145   -0.4125    0.0000 F   0  0  0  0  0  0  0  0  0  0  0  0
    0.0000   -1.6500    0.0000 C   0  0  0  0  0  0  0  0  0  0  0  0
    0.0000   -2.4750    0.0000 C   0  0  0  0  0  0  0  0  0  0  0  0
    0.7145   -2.8875    0.0000 N   0  0  0  0  0  0  0  0  0  0  0  0
    1.4289   -2.4750    0.0000 C   0  0  0  0  0  0  0  0  0  0  0  0
    1.4289   -1.6500    0.0000 O   0  0  0  0  0  0  0  0  0  0  0  0
    2.1434   -2.8875    0.0000 C   0  0  0  0  0  0  0  0  0  0  0  0
    2.8579   -2.4750    0.0000 N   0  0  0  0  0  0  0  0  0  0  0  0
    3.5724   -2.8875    0.0000 C   0  0  0  0  0  0  0  0  0  0  0  0
    4.2868   -2.4750    0.0000 C   0  0  0  0  0  0  0  0  0  0  0  0
    5.0013   -2.8875    0.0000 C   0  0  0  0  0  0  0  0  0  0  0  0
    5.7158   -2.4750    0.0000 Cl  0  0  0  0  0  0  0  0  0  0  0  0
    5.0013   -3.7125    0.0000 C   0  0  0  0  0  0  0  0  0  0  0  0
    4.2868   -4.1250    0.0000 C   0  0  0  0  0  0  0  0  0  0  0  0
    3.5724   -3.7125    0.0000 C   0  0  0  0  0  0  0  0  0  0  0  0
   -0.7145   -2.8875    0.0000 C   0  0  0  0  0  0  0  0  0  0  0  0
   -1.4289   -2.4750    0.0000 C   0  0  0  0  0  0  0  0  0  0  0  0
   -2.1434   -2.8875    0.0000 F   0  0  0  0  0  0  0  0  0  0  0  0
  1  2  1  0  0  0  0
  2  3  1  0  0  0  0
  2  4  1  0  0  0  0
  2  5  1  0  0  0  0
  5  6  1  0  0  0  0
  6  7  2  0  0  0  0
  6  8  1  0  0  0  0
  8  9  1  0  0  0  0
  9 10  1  0  0  0  0
 10 11  1  0  0  0  0
 11 12  1  0  0  0  0
 12 13  1  0  0  0  0
  8 13  1  0  0  0  0
 11 14  1  0  0  0  0
 14 15  2  0  0  0  0
 15 16  1  0  0  0  0
 15 17  1  0  0  0  0
 17 18  2  0  0  0  0
 18 19  1  0  0  0  0
 19 20  1  0  0  0  0
 20 21  2  0  0  0  0
 20 22  1  0  0  0  0
 22 23  1  0  0  0  0
 23 24  1  0  0  0  0
 24 25  2  0  0  0  0
 25 26  1  0  0  0  0
 26 27  1  0  0  0  0
 26 28  2  0  0  0  0
 28 29  1  0  0  0  0
 29 30  2  0  0  0  0
 24 30  1  0  0  0  0
 18 31  1  0  0  0  0
 31 32  2  0  0  0  0
 14 32  1  0  0  0  0
 32 33  1  0  0  0  0
M  END
> <ID>
CPD_575

$$$$
CPD_580
  Mrv1822 09091914012D          

 25 26  0  0  0  0            999 V2000
    0.0000    0.8250    0.0000 C   0  0  0  0  0  0  0  0  0  0  0  0
    0.0000    0.0000    0.0000 C   0  0  0  0  0  0  0  0  0  0  0  0
   -0.7145   -0.4125    0.0000 O   0  0  0  0  0  0  0  0  0  0  0  0
    0.7145   -0.4125    0.0000 N   0  0  0  0  0  0  0  0  0  0  0  0
    0.7145   -1.2375    0.0000 C   0  0  0  0  0  0  0  0  0  0  0  0
    1.4289   -1.6500    0.0000 C   0  0  0  0  0  0  0  0  0  0  0  0
    1.4289   -2.4750    0.0000 C   0  0  0  0  0  0  0  0  0  0  0  0
    2.1434   -2.8875    0.0000 F   0  0  0  0  0  0  0  0  0  0  0  0
    0.7145   -2.8875    0.0000 C   0  0  0  0  0  0  0  0  0  0  0  0
    0.7145   -3.7125    0.0000 N   0  0  0  0  0  0  0  0  0  0  0  0
    1.4289   -4.1250    0.0000 C   0  0  0  0  0  0  0  0  0  0  0  0
    1.4289   -4.9500    0.0000 C   0  0  0  0  0  0  0  0  0  0  0  0
    0.7145   -5.3625    0.0000 N   0  0  0  0  0  0  0  0  0  0  0  0
   -0.0000   -4.9500    0.0000 C   0  0  0  0  0  0  0  0  0  0  0  0
    0.0000   -4.1250    0.0000 C   0  0  0  0  0  0  0  0  0  0  0  0
    0.7145   -6.1875    0.0000 C   0  0  0  0  0  0  0  0  0  0  0  0
    1.4289   -6.6000    0.0000 O   0  0  0  0  0  0  0  0  0  0  0  0
   -0.0000   -6.6000    0.0000 O   0  0  0  0  0  0  0  0  0  0  0  0
   -0.0000   -7.4250    0.0000 C   0  0  0  0  0  0  0  0  0  0  0  0
   -0.0000   -8.2500    0.0000 C   0  0  0  0  0  0  0  0  0  0  0  0
   -0.8250   -7.4250    0.0000 C   0  0  0  0  0  0  0  0  0  0  0  0
    0.8250   -7.4250    0.0000 C   0  0  0  0  0  0  0  0  0  0  0  0
    0.0000   -2.4750    0.0000 C   0  0  0  0  0  0  0  0  0  0  0  0
   -0.7145   -2.8875    0.0000 F   0  0  0  0  0  0  0  0  0  0  0  0
    0.0000   -1.6500    0.0000 C   0  0  0  0  0  0  0  0  0  0  0  0
  1  2  1  0  0  0  0
  2  3  2  0  0  0  0
  2  4  1  0  0  0  0
  4  5  1  0  0  0  0
  5  6  2  0  0  0  0
  6  7  1  0  0  0  0
  7  8  1  0  0  0  0
  7  9  2  0  0  0  0
  9 10  1  0  0  0  0
 10 11  1  0  0  0  0
 11 12  1  0  0  0  0
 12 13  1  0  0  0  0
 13 14  1  0  0  0  0
 14 15  1  0  0  0  0
 10 15  1  0  0  0  0
 13 16  1  0  0  0  0
 16 17  2  0  0  0  0
 16 18  1  0  0  0  0
 18 19  1  0  0  0  0
 19 20  1  0  0  0  0
 19 21  1  0  0  0  0
 19 22  1  0  0  0  0
  9 23  1  0  0  0  0
 23 24  1  0  0  0  0
 23 25  2  0  0  0  0
  5 25  1  0  0  0  0
M  END
> <ID>
CPD_580

$$$$
CPD_585
  Mrv1822 09091914012D          

 37 39  0  0  0  0            999 V2000
   -4.2868   -4.9500    0.0000 O   0  0  0  0  0  0  0  0  0  0  0  0
   -3.5724   -5.3625    0.0000 C   0  0  0  0  0  0  0  0  0  0  0  0
   -3.5724   -6.1875    0.0000 O   0  0  0  0  0  0  0  0  0  0  0  0
   -2.8579   -4.9500    0.0000 C   0  0  0  0  0  0  0  0  0  0  0  0
   -2.1434   -5.3625    0.0000 C   0  0  0  0  0  0  0  0  0  0  0  0
   -1.4289   -4.9500    0.0000 C   0  0  0  0  0  0  0  0  0  0  0  0
   -0.7145   -5.3625    0.0000 C   0  0  0  0  0  0  0  0  0  0  0  0
   -0.7145   -6.1875    0.0000 O   0  0  0  0  0  0  0  0  0  0  0  0
   -0.0000   -4.9500    0.0000 N   0  0  0  0  0  0  0  0  0  0  0  0
    0.7145   -5.3625    0.0000 C   0  0  0  0  0  0  0  0  0  0  0  0
    1.4289   -4.9500    0.0000 C   0  0  0  0  0  0  0  0  0  0  0  0
    1.4289   -4.1250    0.0000 N   0  0  0  0  0  0  0  0  0  0  0  0
    0.7145   -3.7125    0.0000 C   0  0  0  0  0  0  0  0  0  0  0  0
    0.7145   -2.8875    0.0000 O   0  0  0  0  0  0  0  0  0  0  0  0
    0.0000   -4.1250    0.0000 C   0  0  0  0  0  0  0  0  0  0  0  0
   -0.7145   -3.7125    0.0000 C   0  0  0  0  0  0  0  0  0  0  0  0
   -0.7145   -2.8875    0.0000 C   0  0  0  0  0  0  0  0  0  0  0  0
    0.0000   -2.4750    0.0000 O   0  0  0  0  0  0  0  0  0  0  0  0
   -1.4289   -2.4750    0.0000 N   0  0  0  0  0  0  0  0  0  0  0  0
   -2.1434   -2.8875    0.0000 C   0  0  0  0  0  0  0  0  0  0  0  0
   -2.8579   -2.4750    0.0000 C   0  0  0  0  0  0  0  0  0  0  0  0
   -2.8579   -1.6500    0.0000 C   0  0  0  0  0  0  0  0  0  0  0  0
   -2.1434   -1.2375    0.0000 C   0  0  0  0  0  0  0  0  0  0  0  0
   -1.4289   -1.6500    0.0000 C   0  0  0  0  0  0  0  0  0  0  0  0
   -0.7145   -1.2375    0.0000 C   0  0  0  0  0  0  0  0  0  0  0  0
   -0.0000   -1.6500    0.0000 C   0  0  0  0  0  0  0  0  0  0  0  0
    0.7145   -1.2375    0.0000 O   0  0  0  0  0  0  0  0  0  0  0  0
    0.7145   -0.4125    0.0000 C   0  0  0  0  0  0  0  0  0  0  0  0
   -0.0000    0.0000    0.0000 C   0  0  0  0  0  0  0  0  0  0  0  0
   -0.0000    0.8250    0.0000 C   0  0  0  0  0  0  0  0  0  0  0  0
    0.7145    1.2375    0.0000 C   0  0  0  0  0  0  0  0  0  0  0  0
    1.4289    0.8250    0.0000 C   0  0  0  0  0  0  0  0  0  0  0  0
    1.4289    0.0000    0.0000 N   0  0  0  0  0  0  0  0  0  0  0  0
    0.7145    2.0625    0.0000 C   0  0  0  0  0  0  0  0  0  0  0  0
    0.7145    2.8875    0.0000 F   0  0  0  0  0  0  0  0  0  0  0  0
    1.5395    2.0625    0.0000 F   0  0  0  0  0  0  0  0  0  0  0  0
   -0.1105    2.0625    0.0000 F   0  0  0  0  0  0  0  0  0  0  0  0
  1  2  1  0  0  0  0
  2  3  2  0  0  0  0
  2  4  1  0  0  0  0
  4  5  1  0  0  0  0
  5  6  1  0  0  0  0
  6  7  1  0  0  0  0
  7  8  2  0  0  0  0
  7  9  1  0  0  0  0
  9 10  1  0  0  0  0
 10 11  1  0  0  0  0
 11 12  1  0  0  0  0
 12 13  1  0  0  0  0
 13 14  2  0  0  0  0
 13 15  1  0  0  0  0
  9 15  1  0  0  0  0
 15 16  1  0  0  0  0
 16 17  1  0  0  0  0
 17 18  2  0  0  0  0
 17 19  1  0  0  0  0
 19 20  1  0  0  0  0
 20 21  1  0  0  0  0
 21 22  1  0  0  0  0
 22 23  1  0  0  0  0
 23 24  1  0  0  0  0
 19 24  1  0  0  0  0
 24 25  1  0  0  0  0
 25 26  1  0  0  0  0
 26 27  1  0  0  0  0
 27 28  1  0  0  0  0
 28 29  2  0  0  0  0
 29 30  1  0  0  0  0
 30 31  2  0  0  0  0
 31 32  1  0  0  0  0
 32 33  2  0  0  0  0
 28 33  1  0  0  0  0
 31 34  1  0  0  0  0
 34 35  1  0  0  0  0
 34 36  1  0  0  0  0
 34 37  1  0  0  0  0
M  END
> <ID>
CPD_585

$$$$
CPD_590
  Mrv1822 09091914012D          

 37 41  0  0  0  0            999 V2000
   -0.3984    0.7541    0.0000 C   0  0  0  0  0  0  0  0  0  0  0  0
   -0.1435   -0.0305    0.0000 N   0  0  0  0  0  0  0  0  0  0  0  0
   -0.6284   -0.6979    0.0000 C   0  0  0  0  0  0  0  0  0  0  0  0
   -0.1435   -1.3654    0.0000 C   0  0  0  0  0  0  0  0  0  0  0  0
    0.6411   -1.1104    0.0000 C   0  0  0  0  0  0  0  0  0  0  0  0
    0.6411   -0.2854    0.0000 C   0  0  0  0  0  0  0  0  0  0  0  0
    1.3556    0.1271    0.0000 C   0  0  0  0  0  0  0  0  0  0  0  0
    2.0701   -0.2854    0.0000 C   0  0  0  0  0  0  0  0  0  0  0  0
    2.0701   -1.1104    0.0000 C   0  0  0  0  0  0  0  0  0  0  0  0
    1.3556   -1.5229    0.0000 C   0  0  0  0  0  0  0  0  0  0  0  0
    1.3556   -2.3479    0.0000 C   0  0  0  0  0  0  0  0  0  0  0  0
    0.6411   -2.7604    0.0000 O   0  0  0  0  0  0  0  0  0  0  0  0
    2.0701   -2.7604    0.0000 N   0  0  0  0  0  0  0  0  0  0  0  0
    2.0701   -3.5854    0.0000 C   0  0  0  0  0  0  0  0  0  0  0  0
    2.7845   -3.9979    0.0000 C   0  0  0  0  0  0  0  0  0  0  0  0
    3.4990   -3.5854    0.0000 N   0  0  0  0  0  0  0  0  0  0  0  0
    2.7845   -4.8229    0.0000 C   0  0  0  0  0  0  0  0  0  0  0  0
    2.0701   -5.2354    0.0000 C   0  0  0  0  0  0  0  0  0  0  0  0
    1.3556   -4.8229    0.0000 C   0  0  0  0  0  0  0  0  0  0  0  0
    1.3556   -3.9979    0.0000 C   0  0  0  0  0  0  0  0  0  0  0  0
    2.0701   -6.0604    0.0000 C   0  0  0  0  0  0  0  0  0  0  0  0
    1.3556   -6.4729    0.0000 O   0  0  0  0  0  0  0  0  0  0  0  0
    2.7845   -6.4729    0.0000 N   0  0  0  0  0  0  0  0  0  0  0  0
    2.7845   -7.2979    0.0000 C   0  0  0  0  0  0  0  0  0  0  0  0
    3.4990   -7.7104    0.0000 C   0  0  0  0  0  0  0  0  0  0  0  0
    3.4990   -8.5354    0.0000 C   0  0  0  0  0  0  0  0  0  0  0  0
    2.7845   -8.9479    0.0000 C   0  0  0  0  0  0  0  0  0  0  0  0
    2.7845   -9.7729    0.0000 C   0  0  0  0  0  0  0  0  0  0  0  0
    3.4990  -10.1854    0.0000 N   0  0  0  0  0  0  0  0  0  0  0  0
    4.2135   -9.7729    0.0000 C   0  0  0  0  0  0  0  0  0  0  0  0
    4.9279  -10.1854    0.0000 C   0  0  0  0  0  0  0  0  0  0  0  0
    4.9279  -11.0104    0.0000 N   0  0  0  0  0  0  0  0  0  0  0  0
    5.6424  -11.4229    0.0000 C   0  0  0  0  0  0  0  0  0  0  0  0
    4.2135  -11.4229    0.0000 C   0  0  0  0  0  0  0  0  0  0  0  0
    3.4990  -11.0104    0.0000 C   0  0  0  0  0  0  0  0  0  0  0  0
    2.0701   -8.5354    0.0000 C   0  0  0  0  0  0  0  0  0  0  0  0
    2.0701   -7.7104    0.0000 C   0  0  0  0  0  0  0  0  0  0  0  0
  1  2  1  0  0  0  0
  2  3  1  0  0  0  0
  3  4  2  0  0  0  0
  4  5  1  0  0  0  0
  5  6  2  0  0  0  0
  2  6  1  0  0  0  0
  6  7  1  0  0  0  0
  7  8  2  0  0  0  0
  8  9  1  0  0  0  0
  9 10  2  0  0  0  0
  5 10  1  0  0  0  0
 10 11  1  0  0  0  0
 11 12  2  0  0  0  0
 11 13  1  0  0  0  0
 13 14  1  0  0  0  0
 14 15  2  0  0  0  0
 15 16  1  0  0  0  0
 15 17  1  0  0  0  0
 17 18  2  0  0  0  0
 18 19  1  0  0  0  0
 19 20  2  0  0  0  0
 14 20  1  0  0  0  0
 18 21  1  0  0  0  0
 21 22  2  0  0  0  0
 21 23  1  0  0  0  0
 23 24  1  0  0  0  0
 24 25  2  0  0  0  0
 25 26  1  0  0  0  0
 26 27  2  0  0  0  0
 27 28  1  0  0  0  0
 28 29  1  0  0  0  0
 29 30  1  0  0  0  0
 30 31  1  0  0  0  0
 31 32  1  0  0  0  0
 32 33  1  0  0  0  0
 32 34  1  0  0  0  0
 34 35  1  0  0  0  0
 29 35  1  0  0  0  0
 27 36  1  0  0  0  0
 36 37  2  0  0  0  0
 24 37  1  0  0  0  0
M  END
> <ID>
CPD_590

$$$$
CPD_595
  Mrv1822 09091914012D          

 39 43  0  0  0  0            999 V2000
   -2.8579    9.9000    0.0000 C   0  0  0  0  0  0  0  0  0  0  0  0
   -2.1434    9.4875    0.0000 N   0  0  0  0  0  0  0  0  0  0  0  0
   -1.4289    9.9000    0.0000 C   0  0  0  0  0  0  0  0  0  0  0  0
   -0.7145    9.4875    0.0000 C   0  0  0  0  0  0  0  0  0  0  0  0
   -0.7145    8.6625    0.0000 N   0  0  0  0  0  0  0  0  0  0  0  0
   -0.0000    8.2500    0.0000 C   0  0  0  0  0  0  0  0  0  0  0  0
    0.0000    7.4250    0.0000 C   0  0  0  0  0  0  0  0  0  0  0  0
    0.7145    7.0125    0.0000 C   0  0  0  0  0  0  0  0  0  0  0  0
    0.7145    6.1875    0.0000 C   0  0  0  0  0  0  0  0  0  0  0  0
    0.0000    5.7750    0.0000 C   0  0  0  0  0  0  0  0  0  0  0  0
    0.0000    4.9500    0.0000 N   0  0  0  0  0  0  0  0  0  0  0  0
    0.7145    4.5375    0.0000 C   0  0  0  0  0  0  0  0  0  0  0  0
    1.4289    4.9500    0.0000 O   0  0  0  0  0  0  0  0  0  0  0  0
    0.7145    3.7125    0.0000 C   0  0  0  0  0  0  0  0  0  0  0  0
    1.4289    3.3000    0.0000 C   0  0  0  0  0  0  0  0  0  0  0  0
    1.4289    2.4750    0.0000 C   0  0  0  0  0  0  0  0  0  0  0  0
    2.1434    2.0625    0.0000 N   0  0  0  0  0  0  0  0  0  0  0  0
    0.7145    2.0625    0.0000 C   0  0  0  0  0  0  0  0  0  0  0  0
    0.7145    1.2375    0.0000 N   0  0  0  0  0  0  0  0  0  0  0  0
    0.0000    0.8250    0.0000 C   0  0  0  0  0  0  0  0  0  0  0  0
   -0.7145    1.2375    0.0000 O   0  0  0  0  0  0  0  0  0  0  0  0
    0.0000   -0.0000    0.0000 C   0  0  0  0  0  0  0  0  0  0  0  0
   -0.7145   -0.4125    0.0000 C   0  0  0  0  0  0  0  0  0  0  0  0
   -0.7145   -1.2375    0.0000 C   0  0  0  0  0  0  0  0  0  0  0  0
   -1.4289   -1.6500    0.0000 O   0  0  0  0  0  0  0  0  0  0  0  0
    0.0000   -1.6500    0.0000 N   0  0  0  0  0  0  0  0  0  0  0  0
    0.0000   -2.4750    0.0000 C   0  0  0  0  0  0  0  0  0  0  0  0
    0.7145   -1.2375    0.0000 C   0  0  0  0  0  0  0  0  0  0  0  0
    0.7145   -0.4125    0.0000 C   0  0  0  0  0  0  0  0  0  0  0  0
    1.4289   -0.0000    0.0000 C   0  0  0  0  0  0  0  0  0  0  0  0
    2.1434   -0.4125    0.0000 C   0  0  0  0  0  0  0  0  0  0  0  0
    2.1434   -1.2375    0.0000 C   0  0  0  0  0  0  0  0  0  0  0  0
    1.4289   -1.6500    0.0000 C   0  0  0  0  0  0  0  0  0  0  0  0
    0.0000    2.4750    0.0000 C   0  0  0  0  0  0  0  0  0  0  0  0
    0.0000    3.3000    0.0000 C   0  0  0  0  0  0  0  0  0  0  0  0
   -0.7145    6.1875    0.0000 C   0  0  0  0  0  0  0  0  0  0  0  0
   -0.7145    7.0125    0.0000 C   0  0  0  0  0  0  0  0  0  0  0  0
   -1.4289    8.2500    0.0000 C   0  0  0  0  0  0  0  0  0  0  0  0
   -2.1434    8.6625    0.0000 C   0  0  0  0  0  0  0  0  0  0  0  0
  1  2  1  0  0  0  0
  2  3  1  0  0  0  0
  3  4  1  0  0  0  0
  4  5  1  0  0  0  0
  5  6  1  0  0  0  0
  6  7  1  0  0  0  0
  7  8  2  0  0  0  0
  8  9  1  0  0  0  0
  9 10  2  0  0  0  0
 10 11  1  0  0  0  0
 11 12  1  0  0  0  0
 12 13  2  0  0  0  0
 12 14  1  0  0  0  0
 14 15  2  0  0  0  0
 15 16  1  0  0  0  0
 16 17  1  0  0  0  0
 16 18  2  0  0  0  0
 18 19  1  0  0  0  0
 19 20  1  0  0  0  0
 20 21  2  0  0  0  0
 20 22  1  0  0  0  0
 22 23  2  0  0  0  0
 23 24  1  0  0  0  0
 24 25  2  0  0  0  0
 24 26  1  0  0  0  0
 26 27  1  0  0  0  0
 26 28  1  0  0  0  0
 28 29  2  0  0  0  0
 22 29  1  0  0  0  0
 29 30  1  0  0  0  0
 30 31  2  0  0  0  0
 31 32  1  0  0  0  0
 32 33  2  0  0  0  0
 28 33  1  0  0  0  0
 18 34  1  0  0  0  0
 34 35  2  0  0  0  0
 14 35  1  0  0  0  0
 10 36  1  0  0  0  0
 36 37  2  0  0  0  0
  7 37  1  0  0  0  0
  5 38  1  0  0  0  0
 38 39  1  0  0  0  0
  2 39  1  0  0  0  0
M  END
> <ID>
CPD_595

$$$$
CPD_600
  Mrv1822 09091914012D          

 22 23  0  0  0  0            999 V2000
    0.0000   -1.6500    0.0000 C   0  0  0  0  0  0  0  0  0  0  0  0
    0.0000   -2.4750    0.0000 C   0  0  0  0  0  0  0  0  0  0  0  0
    0.7145   -2.8875    0.0000 C   0  0  0  0  0  0  0  0  0  0  0  0
    0.7145   -3.7125    0.0000 C   0  0  0  0  0  0  0  0  0  0  0  0
    0.0000   -4.1250    0.0000 C   0  0  0  0  0  0  0  0  0  0  0  0
   -0.7145   -3.7125    0.0000 C   0  0  0  0  0  0  0  0  0  0  0  0
   -0.7145   -2.8875    0.0000 C   0  0  0  0  0  0  0  0  0  0  0  0
   -1.4289   -4.1250    0.0000 C   0  0  0  0  0  0  0  0  0  0  0  0
   -1.4289   -4.9500    0.0000 O   0  0  0  0  0  0  0  0  0  0  0  0
   -2.1434   -3.7125    0.0000 N   0  0  0  0  0  0  0  0  0  0  0  0
   -2.8579   -4.1250    0.0000 C   0  0  0  0  0  0  0  0  0  0  0  0
   -2.8579   -4.9500    0.0000 C   0  0  0  0  0  0  0  0  0  0  0  0
   -2.1434   -5.3625    0.0000 Cl  0  0  0  0  0  0  0  0  0  0  0  0
   -3.5724   -5.3625    0.0000 C   0  0  0  0  0  0  0  0  0  0  0  0
   -4.2868   -4.9500    0.0000 C   0  0  0  0  0  0  0  0  0  0  0  0
   -5.0013   -5.3625    0.0000 F   0  0  0  0  0  0  0  0  0  0  0  0
   -4.2868   -4.1250    0.0000 C   0  0  0  0  0  0  0  0  0  0  0  0
   -5.0013   -3.7125    0.0000 Br  0  0  0  0  0  0  0  0  0  0  0  0
   -3.5724   -3.7125    0.0000 C   0  0  0  0  0  0  0  0  0  0  0  0
    1.4289   -2.4750    0.0000 C   0  0  0  0  0  0  0  0  0  0  0  0
    1.4289   -1.6500    0.0000 O   0  0  0  0  0  0  0  0  0  0  0  0
    2.1434   -2.8875    0.0000 O   0  0  0  0  0  0  0  0  0  0  0  0
  1  2  1  0  0  0  0
  2  3  2  0  0  0  0
  3  4  1  0  0  0  0
  4  5  2  0  0  0  0
  5  6  1  0  0  0  0
  6  7  2  0  0  0  0
  2  7  1  0  0  0  0
  6  8  1  0  0  0  0
  8  9  2  0  0  0  0
  8 10  1  0  0  0  0
 10 11  1  0  0  0  0
 11 12  2  0  0  0  0
 12 13  1  0  0  0  0
 12 14  1  0  0  0  0
 14 15  2  0  0  0  0
 15 16  1  0  0  0  0
 15 17  1  0  0  0  0
 17 18  1  0  0  0  0
 17 19  2  0  0  0  0
 11 19  1  0  0  0  0
  3 20  1  0  0  0  0
 20 21  1  0  0  0  0
 20 22  2  0  0  0  0
M  END
> <ID>
CPD_600

$$$$
CPD_605
  Mrv1822 09091914012D          

 33 35  0  0  0  0            999 V2000
   -0.7145   -1.2375    0.0000 C   0  0  0  0  0  0  0  0  0  0  0  0
   -0.7145   -2.0625    0.0000 C   0  0  0  0  0  0  0  0  0  0  0  0
    0.0000   -2.4750    0.0000 C   0  0  0  0  0  0  0  0  0  0  0  0
    0.0000   -3.3000    0.0000 C   0  0  0  0  0  0  0  0  0  0  0  0
   -0.7145   -3.7125    0.0000 C   0  0  0  0  0  0  0  0  0  0  0  0
   -1.4289   -3.3000    0.0000 C   0  0  0  0  0  0  0  0  0  0  0  0
   -1.4289   -2.4750    0.0000 C   0  0  0  0  0  0  0  0  0  0  0  0
   -2.1434   -3.7125    0.0000 C   0  0  0  0  0  0  0  0  0  0  0  0
   -2.8579   -3.3000    0.0000 O   0  0  0  0  0  0  0  0  0  0  0  0
   -2.1434   -4.5375    0.0000 O   0  0  0  0  0  0  0  0  0  0  0  0
    0.7145   -2.0625    0.0000 N   0  0  0  0  0  0  0  0  0  0  0  0
    1.4289   -2.4750    0.0000 C   0  0  0  0  0  0  0  0  0  0  0  0
    2.1434   -2.0625    0.0000 O   0  0  0  0  0  0  0  0  0  0  0  0
    1.4289   -3.3000    0.0000 C   0  0  0  0  0  0  0  0  0  0  0  0
    2.1434   -3.7125    0.0000 O   0  0  0  0  0  0  0  0  0  0  0  0
    2.1434   -4.5375    0.0000 C   0  0  0  0  0  0  0  0  0  0  0  0
    2.8579   -4.9500    0.0000 C   0  0  0  0  0  0  0  0  0  0  0  0
    2.8579   -5.7750    0.0000 C   0  0  0  0  0  0  0  0  0  0  0  0
    2.1434   -6.1875    0.0000 C   0  0  0  0  0  0  0  0  0  0  0  0
    2.1434   -7.0125    0.0000 C   0  0  0  0  0  0  0  0  0  0  0  0
    1.4289   -7.4250    0.0000 C   0  0  0  0  0  0  0  0  0  0  0  0
    1.4289   -8.2500    0.0000 N   0  0  0  0  0  0  0  0  0  0  0  0
    1.4289   -5.7750    0.0000 C   0  0  0  0  0  0  0  0  0  0  0  0
    1.4289   -4.9500    0.0000 C   0  0  0  0  0  0  0  0  0  0  0  0
    0.7145   -1.2375    0.0000 S   0  0  0  0  0  0  0  0  0  0  0  0
    1.5395   -1.2375    0.0000 O   0  0  0  0  0  0  0  0  0  0  0  0
   -0.1105   -1.2375    0.0000 O   0  0  0  0  0  0  0  0  0  0  0  0
    0.7145   -0.4125    0.0000 C   0  0  0  0  0  0  0  0  0  0  0  0
    0.0000   -0.0000    0.0000 C   0  0  0  0  0  0  0  0  0  0  0  0
    0.0000    0.8250    0.0000 C   0  0  0  0  0  0  0  0  0  0  0  0
    0.7145    1.2375    0.0000 C   0  0  0  0  0  0  0  0  0  0  0  0
    1.4289    0.8250    0.0000 C   0  0  0  0  0  0  0  0  0  0  0  0
    1.4289   -0.0000    0.0000 C   0  0  0  0  0  0  0  0  0  0  0  0
  1  2  1  0  0  0  0
  2  3  2  0  0  0  0
  3  4  1  0  0  0  0
  4  5  2  0  0  0  0
  5  6  1  0  0  0  0
  6  7  2  0  0  0  0
  2  7  1  0  0  0  0
  6  8  1  0  0  0  0
  8  9  1  0  0  0  0
  8 10  2  0  0  0  0
  3 11  1  0  0  0  0
 11 12  1  0  0  0  0
 12 13  2  0  0  0  0
 12 14  1  0  0  0  0
 14 15  1  0  0  0  0
 15 16  1  0  0  0  0
 16 17  2  0  0  0  0
 17 18  1  0  0  0  0
 18 19  2  0  0  0  0
 19 20  1  0  0  0  0
 20 21  1  0  0  0  0
 21 22  1  0  0  0  0
 19 23  1  0  0  0  0
 23 24  2  0  0  0  0
 16 24  1  0  0  0  0
 11 25  1  0  0  0  0
 25 26  2  0  0  0  0
 25 27  2  0  0  0  0
 25 28  1  0  0  0  0
 28 29  2  0  0  0  0
 29 30  1  0  0  0  0
 30 31  2  0  0  0  0
 31 32  1  0  0  0  0
 32 33  2  0  0  0  0
 28 33  1  0  0  0  0
M  END
> <ID>
CPD_605

$$$$
CPD_610
  Mrv1822 09091914012D          

 30 32  0  0  0  0            999 V2000
    2.8579    0.0000    0.0000 C   0  0  0  0  0  0  0  0  0  0  0  0
    2.8579   -0.8250    0.0000 C   0  0  0  0  0  0  0  0  0  0  0  0
    2.1434   -1.2375    0.0000 C   0  0  0  0  0  0  0  0  0  0  0  0
    2.1434   -2.0625    0.0000 C   0  0  0  0  0  0  0  0  0  0  0  0
    2.8579   -2.4750    0.0000 C   0  0  0  0  0  0  0  0  0  0  0  0
    3.5724   -2.0625    0.0000 C   0  0  0  0  0  0  0  0  0  0  0  0
    4.2868   -2.4750    0.0000 C   0  0  0  0  0  0  0  0  0  0  0  0
    5.0013   -2.0625    0.0000 O   0  0  0  0  0  0  0  0  0  0  0  0
    4.2868   -3.3000    0.0000 N   0  0  0  0  0  0  0  0  0  0  0  0
    5.0013   -3.7125    0.0000 C   0  0  0  0  0  0  0  0  0  0  0  0
    5.7158   -3.3000    0.0000 C   0  0  0  0  0  0  0  0  0  0  0  0
    5.7158   -2.4750    0.0000 C   0  0  0  0  0  0  0  0  0  0  0  0
    6.4302   -3.7125    0.0000 C   0  0  0  0  0  0  0  0  0  0  0  0
    6.4302   -4.5375    0.0000 C   0  0  0  0  0  0  0  0  0  0  0  0
    5.7158   -4.9500    0.0000 C   0  0  0  0  0  0  0  0  0  0  0  0
    5.0013   -4.5375    0.0000 C   0  0  0  0  0  0  0  0  0  0  0  0
    7.1447   -4.9500    0.0000 C   0  0  0  0  0  0  0  0  0  0  0  0
    7.1447   -5.7750    0.0000 O   0  0  0  0  0  0  0  0  0  0  0  0
    7.8592   -4.5375    0.0000 O   0  0  0  0  0  0  0  0  0  0  0  0
    3.5724   -3.7125    0.0000 S   0  0  0  0  0  0  0  0  0  0  0  0
    3.9849   -4.4270    0.0000 O   0  0  0  0  0  0  0  0  0  0  0  0
    3.1599   -2.9980    0.0000 O   0  0  0  0  0  0  0  0  0  0  0  0
    2.8579   -4.1250    0.0000 C   0  0  0  0  0  0  0  0  0  0  0  0
    2.8579   -4.9500    0.0000 C   0  0  0  0  0  0  0  0  0  0  0  0
    2.1434   -5.3625    0.0000 C   0  0  0  0  0  0  0  0  0  0  0  0
    1.4289   -4.9500    0.0000 C   0  0  0  0  0  0  0  0  0  0  0  0
    1.4289   -4.1250    0.0000 C   0  0  0  0  0  0  0  0  0  0  0  0
    2.1434   -3.7125    0.0000 C   0  0  0  0  0  0  0  0  0  0  0  0
    3.5724   -1.2375    0.0000 C   0  0  0  0  0  0  0  0  0  0  0  0
    4.2868   -0.8250    0.0000 O   0  0  0  0  0  0  0  0  0  0  0  0
  1  2  1  0  0  0  0
  2  3  2  0  0  0  0
  3  4  1  0  0  0  0
  4  5  2  0  0  0  0
  5  6  1  0  0  0  0
  6  7  1  0  0  0  0
  7  8  2  0  0  0  0
  7  9  1  0  0  0  0
  9 10  1  0  0  0  0
 10 11  2  0  0  0  0
 11 12  1  0  0  0  0
 11 13  1  0  0  0  0
 13 14  2  0  0  0  0
 14 15  1  0  0  0  0
 15 16  2  0  0  0  0
 10 16  1  0  0  0  0
 14 17  1  0  0  0  0
 17 18  1  0  0  0  0
 17 19  2  0  0  0  0
  9 20  1  0  0  0  0
 20 21  2  0  0  0  0
 20 22  2  0  0  0  0
 20 23  1  0  0  0  0
 23 24  2  0  0  0  0
 24 25  1  0  0  0  0
 25 26  2  0  0  0  0
 26 27  1  0  0  0  0
 27 28  2  0  0  0  0
 23 28  1  0  0  0  0
  6 29  2  0  0  0  0
  2 29  1  0  0  0  0
 29 30  1  0  0  0  0
M  END
> <ID>
CPD_610

$$$$
CPD_615
  Mrv1822 09091914012D          

 32 35  0  0  0  0            999 V2000
    6.3569    2.7604    0.0000 C   0  0  0  0  0  0  0  0  0  0  0  0
    6.3569    1.9354    0.0000 O   0  0  0  0  0  0  0  0  0  0  0  0
    5.6424    1.5229    0.0000 C   0  0  0  0  0  0  0  0  0  0  0  0
    5.6424    0.6979    0.0000 C   0  0  0  0  0  0  0  0  0  0  0  0
    4.9279    0.2854    0.0000 C   0  0  0  0  0  0  0  0  0  0  0  0
    4.2135    0.6979    0.0000 C   0  0  0  0  0  0  0  0  0  0  0  0
    4.2135    1.5229    0.0000 C   0  0  0  0  0  0  0  0  0  0  0  0
    4.9279    1.9354    0.0000 C   0  0  0  0  0  0  0  0  0  0  0  0
    3.4990    0.2854    0.0000 N   0  0  0  0  0  0  0  0  0  0  0  0
    3.4990   -0.5396    0.0000 C   0  0  0  0  0  0  0  0  0  0  0  0
    2.7845   -0.9521    0.0000 O   0  0  0  0  0  0  0  0  0  0  0  0
    4.2135   -0.9521    0.0000 C   0  0  0  0  0  0  0  0  0  0  0  0
    4.9279   -0.5396    0.0000 C   0  0  0  0  0  0  0  0  0  0  0  0
    5.4129    0.1279    0.0000 O   0  0  0  0  0  0  0  0  0  0  0  0
    5.6424   -0.9521    0.0000 C   0  0  0  0  0  0  0  0  0  0  0  0
    5.6424   -1.7771    0.0000 C   0  0  0  0  0  0  0  0  0  0  0  0
    4.9279   -2.1896    0.0000 C   0  0  0  0  0  0  0  0  0  0  0  0
    4.2135   -1.7771    0.0000 C   0  0  0  0  0  0  0  0  0  0  0  0
    3.4990   -2.1896    0.0000 O   0  0  0  0  0  0  0  0  0  0  0  0
    2.7845    0.6979    0.0000 S   0  0  0  0  0  0  0  0  0  0  0  0
    3.1970    1.4124    0.0000 O   0  0  0  0  0  0  0  0  0  0  0  0
    2.3720   -0.0165    0.0000 O   0  0  0  0  0  0  0  0  0  0  0  0
    2.0701    1.1104    0.0000 C   0  0  0  0  0  0  0  0  0  0  0  0
    1.3556    0.6979    0.0000 C   0  0  0  0  0  0  0  0  0  0  0  0
    0.6411    1.1104    0.0000 N   0  0  0  0  0  0  0  0  0  0  0  0
   -0.1435    0.8555    0.0000 C   0  0  0  0  0  0  0  0  0  0  0  0
   -0.3984    0.0709    0.0000 C   0  0  0  0  0  0  0  0  0  0  0  0
   -0.6284    1.5229    0.0000 N   0  0  0  0  0  0  0  0  0  0  0  0
   -0.1435    2.1904    0.0000 N   0  0  0  0  0  0  0  0  0  0  0  0
    0.6411    1.9354    0.0000 C   0  0  0  0  0  0  0  0  0  0  0  0
    1.3556    2.3479    0.0000 C   0  0  0  0  0  0  0  0  0  0  0  0
    2.0701    1.9354    0.0000 C   0  0  0  0  0  0  0  0  0  0  0  0
  1  2  1  0  0  0  0
  2  3  1  0  0  0  0
  3  4  2  0  0  0  0
  4  5  1  0  0  0  0
  5  6  2  0  0  0  0
  6  7  1  0  0  0  0
  7  8  2  0  0  0  0
  3  8  1  0  0  0  0
  6  9  1  0  0  0  0
  9 10  1  0  0  0  0
 10 11  2  0  0  0  0
 10 12  1  0  0  0  0
 12 13  2  0  0  0  0
 13 14  1  0  0  0  0
 13 15  1  0  0  0  0
 15 16  2  0  0  0  0
 16 17  1  0  0  0  0
 17 18  2  0  0  0  0
 12 18  1  0  0  0  0
 18 19  1  0  0  0  0
  9 20  1  0  0  0  0
 20 21  2  0  0  0  0
 20 22  2  0  0  0  0
 20 23  1  0  0  0  0
 23 24  2  0  0  0  0
 24 25  1  0  0  0  0
 25 26  1  0  0  0  0
 26 27  1  0  0  0  0
 26 28  2  0  0  0  0
 28 29  1  0  0  0  0
 29 30  2  0  0  0  0
 25 30  1  0  0  0  0
 30 31  1  0  0  0  0
 31 32  2  0  0  0  0
 23 32  1  0  0  0  0
M  END
> <ID>
CPD_615

$$$$
CPD_620
  Mrv1822 09091914012D          

 32 35  0  0  1  0            999 V2000
    4.2135   -3.4271    0.0000 C   0  0  0  0  0  0  0  0  0  0  0  0
    3.4990   -3.0146    0.0000 O   0  0  0  0  0  0  0  0  0  0  0  0
    3.4990   -2.1896    0.0000 C   0  0  0  0  0  0  0  0  0  0  0  0
    2.7845   -1.7771    0.0000 C   0  0  0  0  0  0  0  0  0  0  0  0
    2.7845   -0.9521    0.0000 C   0  0  0  0  0  0  0  0  0  0  0  0
    3.4990   -0.5396    0.0000 C   0  0  0  0  0  0  0  0  0  0  0  0
    4.2135   -0.9521    0.0000 C   0  0  0  0  0  0  0  0  0  0  0  0
    4.2135   -1.7771    0.0000 C   0  0  0  0  0  0  0  0  0  0  0  0
    3.4990    0.2854    0.0000 N   0  0  0  0  0  0  0  0  0  0  0  0
    4.2135    0.6979    0.0000 C   0  0  0  0  0  0  0  0  0  0  0  0
    4.2135    1.5229    0.0000 O   0  0  0  0  0  0  0  0  0  0  0  0
    4.9279    0.2854    0.0000 C   0  0  1  0  0  0  0  0  0  0  0  0
    4.9279   -0.5396    0.0000 N   0  0  0  0  0  0  0  0  0  0  0  0
    5.6424    0.6979    0.0000 C   0  0  0  0  0  0  0  0  0  0  0  0
    6.3569    0.2854    0.0000 C   0  0  0  0  0  0  0  0  0  0  0  0
    7.1106    0.6210    0.0000 C   0  0  0  0  0  0  0  0  0  0  0  0
    7.6626    0.0079    0.0000 S   0  0  0  0  0  0  0  0  0  0  0  0
    7.2501   -0.7066    0.0000 C   0  0  0  0  0  0  0  0  0  0  0  0
    6.4431   -0.5350    0.0000 N   0  0  0  0  0  0  0  0  0  0  0  0
    2.7845    0.6979    0.0000 S   0  0  0  0  0  0  0  0  0  0  0  0
    3.1970    1.4124    0.0000 O   0  0  0  0  0  0  0  0  0  0  0  0
    2.3720   -0.0165    0.0000 O   0  0  0  0  0  0  0  0  0  0  0  0
    2.0701    1.1104    0.0000 C   0  0  0  0  0  0  0  0  0  0  0  0
    1.3556    0.6979    0.0000 C   0  0  0  0  0  0  0  0  0  0  0  0
    0.6411    1.1104    0.0000 N   0  0  0  0  0  0  0  0  0  0  0  0
   -0.1435    0.8555    0.0000 C   0  0  0  0  0  0  0  0  0  0  0  0
   -0.3984    0.0709    0.0000 C   0  0  0  0  0  0  0  0  0  0  0  0
   -0.6284    1.5229    0.0000 N   0  0  0  0  0  0  0  0  0  0  0  0
   -0.1435    2.1904    0.0000 N   0  0  0  0  0  0  0  0  0  0  0  0
    0.6411    1.9354    0.0000 C   0  0  0  0  0  0  0  0  0  0  0  0
    1.3556    2.3479    0.0000 C   0  0  0  0  0  0  0  0  0  0  0  0
    2.0701    1.9354    0.0000 C   0  0  0  0  0  0  0  0  0  0  0  0
  1  2  1  0  0  0  0
  2  3  1  0  0  0  0
  3  4  2  0  0  0  0
  4  5  1  0  0  0  0
  5  6  2  0  0  0  0
  6  7  1  0  0  0  0
  7  8  2  0  0  0  0
  3  8  1  0  0  0  0
  6  9  1  0  0  0  0
  9 10  1  0  0  0  0
 10 11  2  0  0  0  0
 12 10  1  0  0  0  0
 12 13  1  6  0  0  0
 12 14  1  0  0  0  0
 14 15  1  0  0  0  0
 15 16  2  0  0  0  0
 16 17  1  0  0  0  0
 17 18  1  0  0  0  0
 18 19  2  0  0  0  0
 15 19  1  0  0  0  0
  9 20  1  0  0  0  0
 20 21  2  0  0  0  0
 20 22  2  0  0  0  0
 20 23  1  0  0  0  0
 23 24  2  0  0  0  0
 24 25  1  0  0  0  0
 25 26  1  0  0  0  0
 26 27  1  0  0  0  0
 26 28  2  0  0  0  0
 28 29  1  0  0  0  0
 29 30  2  0  0  0  0
 25 30  1  0  0  0  0
 30 31  1  0  0  0  0
 31 32  2  0  0  0  0
 23 32  1  0  0  0  0
M  END
> <ID>
CPD_620

$$$$
CPD_625
  Mrv1822 09091914012D          

 37 40  0  0  1  0            999 V2000
    4.2135   -3.4271    0.0000 C   0  0  0  0  0  0  0  0  0  0  0  0
    3.4990   -3.0146    0.0000 O   0  0  0  0  0  0  0  0  0  0  0  0
    3.4990   -2.1896    0.0000 C   0  0  0  0  0  0  0  0  0  0  0  0
    2.7845   -1.7771    0.0000 C   0  0  0  0  0  0  0  0  0  0  0  0
    2.7845   -0.9521    0.0000 C   0  0  0  0  0  0  0  0  0  0  0  0
    3.4990   -0.5396    0.0000 C   0  0  0  0  0  0  0  0  0  0  0  0
    4.2135   -0.9521    0.0000 C   0  0  0  0  0  0  0  0  0  0  0  0
    4.2135   -1.7771    0.0000 C   0  0  0  0  0  0  0  0  0  0  0  0
    3.4990    0.2854    0.0000 N   0  0  0  0  0  0  0  0  0  0  0  0
    4.2135    0.6979    0.0000 C   0  0  0  0  0  0  0  0  0  0  0  0
    4.2135    1.5229    0.0000 O   0  0  0  0  0  0  0  0  0  0  0  0
    4.9279    0.2854    0.0000 C   0  0  0  0  0  0  0  0  0  0  0  0
    5.6424    0.6979    0.0000 C   0  0  2  0  0  0  0  0  0  0  0  0
    5.6424    1.5229    0.0000 N   0  0  0  0  0  0  0  0  0  0  0  0
    6.3569    0.2854    0.0000 C   0  0  0  0  0  0  0  0  0  0  0  0
    7.0714    0.6979    0.0000 C   0  0  0  0  0  0  0  0  0  0  0  0
    7.7858    0.2854    0.0000 C   0  0  0  0  0  0  0  0  0  0  0  0
    8.5003    0.6979    0.0000 O   0  0  0  0  0  0  0  0  0  0  0  0
    9.2148    0.2854    0.0000 C   0  0  0  0  0  0  0  0  0  0  0  0
    7.7858   -0.5396    0.0000 C   0  0  0  0  0  0  0  0  0  0  0  0
    7.0714   -0.9521    0.0000 C   0  0  0  0  0  0  0  0  0  0  0  0
    7.0714   -1.7771    0.0000 O   0  0  0  0  0  0  0  0  0  0  0  0
    6.3569   -2.1896    0.0000 C   0  0  0  0  0  0  0  0  0  0  0  0
    6.3569   -0.5396    0.0000 C   0  0  0  0  0  0  0  0  0  0  0  0
    2.7845    0.6979    0.0000 S   0  0  0  0  0  0  0  0  0  0  0  0
    3.1970    1.4124    0.0000 O   0  0  0  0  0  0  0  0  0  0  0  0
    2.3720   -0.0165    0.0000 O   0  0  0  0  0  0  0  0  0  0  0  0
    2.0701    1.1104    0.0000 C   0  0  0  0  0  0  0  0  0  0  0  0
    1.3556    0.6979    0.0000 C   0  0  0  0  0  0  0  0  0  0  0  0
    0.6411    1.1104    0.0000 N   0  0  0  0  0  0  0  0  0  0  0  0
   -0.1435    0.8555    0.0000 C   0  0  0  0  0  0  0  0  0  0  0  0
   -0.3984    0.0709    0.0000 C   0  0  0  0  0  0  0  0  0  0  0  0
   -0.6284    1.5229    0.0000 N   0  0  0  0  0  0  0  0  0  0  0  0
   -0.1435    2.1904    0.0000 N   0  0  0  0  0  0  0  0  0  0  0  0
    0.6411    1.9354    0.0000 C   0  0  0  0  0  0  0  0  0  0  0  0
    1.3556    2.3479    0.0000 C   0  0  0  0  0  0  0  0  0  0  0  0
    2.0701    1.9354    0.0000 C   0  0  0  0  0  0  0  0  0  0  0  0
  1  2  1  0  0  0  0
  2  3  1  0  0  0  0
  3  4  2  0  0  0  0
  4  5  1  0  0  0  0
  5  6  2  0  0  0  0
  6  7  1  0  0  0  0
  7  8  2  0  0  0  0
  3  8  1  0  0  0  0
  6  9  1  0  0  0  0
  9 10  1  0  0  0  0
 10 11  2  0  0  0  0
 10 12  1  0  0  0  0
 13 12  1  0  0  0  0
 13 14  1  6  0  0  0
 13 15  1  0  0  0  0
 15 16  2  0  0  0  0
 16 17  1  0  0  0  0
 17 18  1  0  0  0  0
 18 19  1  0  0  0  0
 17 20  2  0  0  0  0
 20 21  1  0  0  0  0
 21 22  1  0  0  0  0
 22 23  1  0  0  0  0
 21 24  2  0  0  0  0
 15 24  1  0  0  0  0
  9 25  1  0  0  0  0
 25 26  2  0  0  0  0
 25 27  2  0  0  0  0
 25 28  1  0  0  0  0
 28 29  2  0  0  0  0
 29 30  1  0  0  0  0
 30 31  1  0  0  0  0
 31 32  1  0  0  0  0
 31 33  2  0  0  0  0
 33 34  1  0  0  0  0
 34 35  2  0  0  0  0
 30 35  1  0  0  0  0
 35 36  1  0  0  0  0
 36 37  2  0  0  0  0
 28 37  1  0  0  0  0
M  END
> <ID>
CPD_625

$$$$
CPD_630
  Mrv1822 09091914012D          

 31 34  0  0  0  0            999 V2000
    8.3595   -0.4871    0.0000 C   0  0  0  0  0  0  0  0  0  0  0  0
    7.5391   -0.5733    0.0000 O   0  0  0  0  0  0  0  0  0  0  0  0
    7.0541    0.0941    0.0000 C   0  0  0  0  0  0  0  0  0  0  0  0
    7.3897    0.8478    0.0000 O   0  0  0  0  0  0  0  0  0  0  0  0
    6.2336    0.0079    0.0000 C   0  0  0  0  0  0  0  0  0  0  0  0
    5.8211   -0.7066    0.0000 C   0  0  0  0  0  0  0  0  0  0  0  0
    5.0142   -0.5350    0.0000 C   0  0  0  0  0  0  0  0  0  0  0  0
    4.9279    0.2854    0.0000 C   0  0  0  0  0  0  0  0  0  0  0  0
    5.6816    0.6210    0.0000 C   0  0  0  0  0  0  0  0  0  0  0  0
    4.2135    0.6979    0.0000 C   0  0  0  0  0  0  0  0  0  0  0  0
    4.2135    1.5229    0.0000 O   0  0  0  0  0  0  0  0  0  0  0  0
    3.4990    0.2854    0.0000 N   0  0  0  0  0  0  0  0  0  0  0  0
    3.4990   -0.5396    0.0000 C   0  0  0  0  0  0  0  0  0  0  0  0
    4.2135   -0.9521    0.0000 C   0  0  0  0  0  0  0  0  0  0  0  0
    4.2135   -1.7771    0.0000 C   0  0  0  0  0  0  0  0  0  0  0  0
    4.9279   -2.1896    0.0000 C   0  0  0  0  0  0  0  0  0  0  0  0
    3.4990   -2.1896    0.0000 C   0  0  0  0  0  0  0  0  0  0  0  0
    2.7845   -1.7771    0.0000 C   0  0  0  0  0  0  0  0  0  0  0  0
    2.7845   -0.9521    0.0000 C   0  0  0  0  0  0  0  0  0  0  0  0
    2.7845    0.6979    0.0000 S   0  0  0  0  0  0  0  0  0  0  0  0
    3.1970    1.4124    0.0000 O   0  0  0  0  0  0  0  0  0  0  0  0
    2.3720   -0.0165    0.0000 O   0  0  0  0  0  0  0  0  0  0  0  0
    2.0701    1.1104    0.0000 C   0  0  0  0  0  0  0  0  0  0  0  0
    1.3556    0.6979    0.0000 C   0  0  0  0  0  0  0  0  0  0  0  0
    0.6411    1.1104    0.0000 N   0  0  0  0  0  0  0  0  0  0  0  0
   -0.1435    0.8555    0.0000 C   0  0  0  0  0  0  0  0  0  0  0  0
   -0.6284    1.5229    0.0000 N   0  0  0  0  0  0  0  0  0  0  0  0
   -0.1435    2.1904    0.0000 N   0  0  0  0  0  0  0  0  0  0  0  0
    0.6411    1.9354    0.0000 C   0  0  0  0  0  0  0  0  0  0  0  0
    1.3556    2.3479    0.0000 C   0  0  0  0  0  0  0  0  0  0  0  0
    2.0701    1.9354    0.0000 C   0  0  0  0  0  0  0  0  0  0  0  0
  1  2  1  0  0  0  0
  2  3  1  0  0  0  0
  3  4  2  0  0  0  0
  3  5  1  0  0  0  0
  5  6  1  0  0  0  0
  6  7  1  0  0  0  0
  7  8  1  0  0  0  0
  8  9  1  0  0  0  0
  5  9  1  0  0  0  0
  8 10  1  0  0  0  0
 10 11  2  0  0  0  0
 10 12  1  0  0  0  0
 12 13  1  0  0  0  0
 13 14  2  0  0  0  0
 14 15  1  0  0  0  0
 15 16  1  0  0  0  0
 15 17  2  0  0  0  0
 17 18  1  0  0  0  0
 18 19  2  0  0  0  0
 13 19  1  0  0  0  0
 12 20  1  0  0  0  0
 20 21  2  0  0  0  0
 20 22  2  0  0  0  0
 20 23  1  0  0  0  0
 23 24  2  0  0  0  0
 24 25  1  0  0  0  0
 25 26  1  0  0  0  0
 26 27  2  0  0  0  0
 27 28  1  0  0  0  0
 28 29  2  0  0  0  0
 25 29  1  0  0  0  0
 29 30  1  0  0  0  0
 30 31  2  0  0  0  0
 23 31  1  0  0  0  0
M  END
> <ID>
CPD_630

$$$$
CPD_635
  Mrv1822 09091914012D          

 31 34  0  0  0  0            999 V2000
    4.9279   -2.1896    0.0000 C   0  0  0  0  0  0  0  0  0  0  0  0
    4.2135   -1.7771    0.0000 C   0  0  0  0  0  0  0  0  0  0  0  0
    3.4990   -2.1896    0.0000 C   0  0  0  0  0  0  0  0  0  0  0  0
    2.7845   -1.7771    0.0000 C   0  0  0  0  0  0  0  0  0  0  0  0
    2.7845   -0.9521    0.0000 C   0  0  0  0  0  0  0  0  0  0  0  0
    3.4990   -0.5396    0.0000 C   0  0  0  0  0  0  0  0  0  0  0  0
    4.2135   -0.9521    0.0000 C   0  0  0  0  0  0  0  0  0  0  0  0
    3.4990    0.2854    0.0000 N   0  0  0  0  0  0  0  0  0  0  0  0
    4.2135    0.6979    0.0000 C   0  0  0  0  0  0  0  0  0  0  0  0
    4.2135    1.5229    0.0000 O   0  0  0  0  0  0  0  0  0  0  0  0
    4.9279    0.2854    0.0000 C   0  0  0  0  0  0  0  0  0  0  0  0
    5.6424    0.6979    0.0000 C   0  0  0  0  0  0  0  0  0  0  0  0
    5.6424    1.5229    0.0000 C   0  0  0  0  0  0  0  0  0  0  0  0
    6.3569    1.9354    0.0000 C   0  0  0  0  0  0  0  0  0  0  0  0
    6.3569    2.7604    0.0000 O   0  0  0  0  0  0  0  0  0  0  0  0
    7.0714    1.5229    0.0000 N   0  0  0  0  0  0  0  0  0  0  0  0
    7.0714    0.6979    0.0000 C   0  0  0  0  0  0  0  0  0  0  0  0
    7.7858    0.2854    0.0000 O   0  0  0  0  0  0  0  0  0  0  0  0
    6.3569    0.2854    0.0000 C   0  0  0  0  0  0  0  0  0  0  0  0
    2.7845    0.6979    0.0000 S   0  0  0  0  0  0  0  0  0  0  0  0
    3.1970    1.4124    0.0000 O   0  0  0  0  0  0  0  0  0  0  0  0
    2.3720   -0.0165    0.0000 O   0  0  0  0  0  0  0  0  0  0  0  0
    2.0701    1.1104    0.0000 C   0  0  0  0  0  0  0  0  0  0  0  0
    1.3556    0.6979    0.0000 C   0  0  0  0  0  0  0  0  0  0  0  0
    0.6411    1.1104    0.0000 N   0  0  0  0  0  0  0  0  0  0  0  0
   -0.1435    0.8555    0.0000 C   0  0  0  0  0  0  0  0  0  0  0  0
   -0.6284    1.5229    0.0000 N   0  0  0  0  0  0  0  0  0  0  0  0
   -0.1435    2.1904    0.0000 N   0  0  0  0  0  0  0  0  0  0  0  0
    0.6411    1.9354    0.0000 C   0  0  0  0  0  0  0  0  0  0  0  0
    1.3556    2.3479    0.0000 C   0  0  0  0  0  0  0  0  0  0  0  0
    2.0701    1.9354    0.0000 C   0  0  0  0  0  0  0  0  0  0  0  0
  1  2  1  0  0  0  0
  2  3  2  0  0  0  0
  3  4  1  0  0  0  0
  4  5  2  0  0  0  0
  5  6  1  0  0  0  0
  6  7  2  0  0  0  0
  2  7  1  0  0  0  0
  6  8  1  0  0  0  0
  8  9  1  0  0  0  0
  9 10  2  0  0  0  0
  9 11  1  0  0  0  0
 11 12  1  0  0  0  0
 12 13  1  0  0  0  0
 13 14  1  0  0  0  0
 14 15  2  0  0  0  0
 14 16  1  0  0  0  0
 16 17  1  0  0  0  0
 17 18  2  0  0  0  0
 17 19  1  0  0  0  0
 12 19  1  0  0  0  0
  8 20  1  0  0  0  0
 20 21  2  0  0  0  0
 20 22  2  0  0  0  0
 20 23  1  0  0  0  0
 23 24  2  0  0  0  0
 24 25  1  0  0  0  0
 25 26  1  0  0  0  0
 26 27  2  0  0  0  0
 27 28  1  0  0  0  0
 28 29  2  0  0  0  0
 25 29  1  0  0  0  0
 29 30  1  0  0  0  0
 30 31  2  0  0  0  0
 23 31  1  0  0  0  0
M  END
> <ID>
CPD_635

$$$$
CPD_640
  Mrv1822 09091914012D          

 36 40  0  0  0  0            999 V2000
   10.4236   -2.0625    0.0000 C   0  0  0  0  0  0  0  0  0  0  0  0
    9.7092   -2.4750    0.0000 C   0  0  0  0  0  0  0  0  0  0  0  0
    9.7092   -3.3000    0.0000 O   0  0  0  0  0  0  0  0  0  0  0  0
    8.9947   -2.0625    0.0000 C   0  0  0  0  0  0  0  0  0  0  0  0
    8.2802   -2.4750    0.0000 C   0  0  0  0  0  0  0  0  0  0  0  0
    8.2802   -3.3000    0.0000 O   0  0  0  0  0  0  0  0  0  0  0  0
    7.5658   -3.7125    0.0000 C   0  0  0  0  0  0  0  0  0  0  0  0
    7.5658   -4.5375    0.0000 C   0  0  0  0  0  0  0  0  0  0  0  0
    8.2802   -4.9500    0.0000 O   0  0  0  0  0  0  0  0  0  0  0  0
    6.8513   -4.9500    0.0000 N   0  0  0  0  0  0  0  0  0  0  0  0
    6.8513   -5.7750    0.0000 C   0  0  0  0  0  0  0  0  0  0  0  0
    6.1368   -6.1875    0.0000 C   0  0  0  0  0  0  0  0  0  0  0  0
    6.1368   -7.0125    0.0000 C   0  0  0  0  0  0  0  0  0  0  0  0
    6.8513   -7.4250    0.0000 C   0  0  0  0  0  0  0  0  0  0  0  0
    6.8513   -8.2500    0.0000 O   0  0  0  0  0  0  0  0  0  0  0  0
    6.1368   -8.6625    0.0000 C   0  0  0  0  0  0  0  0  0  0  0  0
    5.4223   -8.2500    0.0000 C   0  0  0  0  0  0  0  0  0  0  0  0
    5.4223   -7.4250    0.0000 O   0  0  0  0  0  0  0  0  0  0  0  0
    7.5658   -7.0125    0.0000 C   0  0  0  0  0  0  0  0  0  0  0  0
    7.5658   -6.1875    0.0000 C   0  0  0  0  0  0  0  0  0  0  0  0
    6.1368   -4.5375    0.0000 S   0  0  0  0  0  0  0  0  0  0  0  0
    6.5493   -3.8230    0.0000 O   0  0  0  0  0  0  0  0  0  0  0  0
    5.7243   -5.2520    0.0000 O   0  0  0  0  0  0  0  0  0  0  0  0
    5.4223   -4.1250    0.0000 C   0  0  0  0  0  0  0  0  0  0  0  0
    4.7079   -4.5375    0.0000 C   0  0  0  0  0  0  0  0  0  0  0  0
    3.9934   -4.1250    0.0000 N   0  0  0  0  0  0  0  0  0  0  0  0
    3.2088   -4.3799    0.0000 C   0  0  0  0  0  0  0  0  0  0  0  0
    2.7239   -3.7125    0.0000 N   0  0  0  0  0  0  0  0  0  0  0  0
    3.2088   -3.0451    0.0000 N   0  0  0  0  0  0  0  0  0  0  0  0
    3.9934   -3.3000    0.0000 C   0  0  0  0  0  0  0  0  0  0  0  0
    4.7079   -2.8875    0.0000 C   0  0  0  0  0  0  0  0  0  0  0  0
    5.4223   -3.3000    0.0000 C   0  0  0  0  0  0  0  0  0  0  0  0
    7.5658   -2.0625    0.0000 C   0  0  0  0  0  0  0  0  0  0  0  0
    7.5658   -1.2375    0.0000 C   0  0  0  0  0  0  0  0  0  0  0  0
    8.2802   -0.8250    0.0000 C   0  0  0  0  0  0  0  0  0  0  0  0
    8.9947   -1.2375    0.0000 C   0  0  0  0  0  0  0  0  0  0  0  0
  1  2  1  0  0  0  0
  2  3  2  0  0  0  0
  2  4  1  0  0  0  0
  4  5  2  0  0  0  0
  5  6  1  0  0  0  0
  6  7  1  0  0  0  0
  7  8  1  0  0  0  0
  8  9  2  0  0  0  0
  8 10  1  0  0  0  0
 10 11  1  0  0  0  0
 11 12  2  0  0  0  0
 12 13  1  0  0  0  0
 13 14  2  0  0  0  0
 14 15  1  0  0  0  0
 15 16  1  0  0  0  0
 16 17  1  0  0  0  0
 17 18  1  0  0  0  0
 13 18  1  0  0  0  0
 14 19  1  0  0  0  0
 19 20  2  0  0  0  0
 11 20  1  0  0  0  0
 10 21  1  0  0  0  0
 21 22  2  0  0  0  0
 21 23  2  0  0  0  0
 21 24  1  0  0  0  0
 24 25  2  0  0  0  0
 25 26  1  0  0  0  0
 26 27  1  0  0  0  0
 27 28  2  0  0  0  0
 28 29  1  0  0  0  0
 29 30  2  0  0  0  0
 26 30  1  0  0  0  0
 30 31  1  0  0  0  0
 31 32  2  0  0  0  0
 24 32  1  0  0  0  0
  5 33  1  0  0  0  0
 33 34  2  0  0  0  0
 34 35  1  0  0  0  0
 35 36  2  0  0  0  0
  4 36  1  0  0  0  0
M  END
> <ID>
CPD_640

$$$$
CPD_645
  Mrv1822 09091914012D          

 35 39  0  0  1  0            999 V2000
   -0.7878   -8.5354    0.0000 N   0  0  0  0  0  0  0  0  0  0  0  0
   -0.0734   -8.1229    0.0000 C   0  0  1  0  0  0  0  0  0  0  0  0
   -0.0734   -7.2979    0.0000 C   0  0  0  0  0  0  0  0  0  0  0  0
    0.6411   -6.8854    0.0000 C   0  0  0  0  0  0  0  0  0  0  0  0
    1.3556   -7.2979    0.0000 O   0  0  0  0  0  0  0  0  0  0  0  0
    0.6411   -6.0604    0.0000 N   0  0  0  0  0  0  0  0  0  0  0  0
    1.3556   -5.6479    0.0000 C   0  0  0  0  0  0  0  0  0  0  0  0
    2.0701   -6.0604    0.0000 C   0  0  0  0  0  0  0  0  0  0  0  0
    2.7845   -5.6479    0.0000 C   0  0  0  0  0  0  0  0  0  0  0  0
    2.7845   -4.8229    0.0000 C   0  0  0  0  0  0  0  0  0  0  0  0
    3.4990   -4.4104    0.0000 O   0  0  0  0  0  0  0  0  0  0  0  0
    4.2135   -4.8229    0.0000 C   0  0  0  0  0  0  0  0  0  0  0  0
    4.2135   -5.6479    0.0000 C   0  0  0  0  0  0  0  0  0  0  0  0
    3.4990   -6.0604    0.0000 O   0  0  0  0  0  0  0  0  0  0  0  0
    2.0701   -4.4104    0.0000 C   0  0  0  0  0  0  0  0  0  0  0  0
    1.3556   -4.8229    0.0000 C   0  0  0  0  0  0  0  0  0  0  0  0
   -0.0734   -5.6479    0.0000 S   0  0  0  0  0  0  0  0  0  0  0  0
    0.3391   -4.9335    0.0000 O   0  0  0  0  0  0  0  0  0  0  0  0
   -0.4859   -6.3624    0.0000 O   0  0  0  0  0  0  0  0  0  0  0  0
   -0.7878   -5.2354    0.0000 C   0  0  0  0  0  0  0  0  0  0  0  0
   -1.5023   -5.6479    0.0000 C   0  0  0  0  0  0  0  0  0  0  0  0
   -2.2168   -5.2354    0.0000 N   0  0  0  0  0  0  0  0  0  0  0  0
   -3.0014   -5.4904    0.0000 C   0  0  0  0  0  0  0  0  0  0  0  0
   -3.4863   -4.8229    0.0000 N   0  0  0  0  0  0  0  0  0  0  0  0
   -3.0014   -4.1555    0.0000 N   0  0  0  0  0  0  0  0  0  0  0  0
   -2.2168   -4.4104    0.0000 C   0  0  0  0  0  0  0  0  0  0  0  0
   -1.5023   -3.9979    0.0000 C   0  0  0  0  0  0  0  0  0  0  0  0
   -0.7878   -4.4104    0.0000 C   0  0  0  0  0  0  0  0  0  0  0  0
    0.6411   -8.5354    0.0000 C   0  0  0  0  0  0  0  0  0  0  0  0
    1.3556   -8.1229    0.0000 C   0  0  0  0  0  0  0  0  0  0  0  0
    2.0701   -8.5354    0.0000 C   0  0  0  0  0  0  0  0  0  0  0  0
    2.7845   -8.1229    0.0000 F   0  0  0  0  0  0  0  0  0  0  0  0
    2.0701   -9.3604    0.0000 C   0  0  0  0  0  0  0  0  0  0  0  0
    1.3556   -9.7729    0.0000 C   0  0  0  0  0  0  0  0  0  0  0  0
    0.6411   -9.3604    0.0000 C   0  0  0  0  0  0  0  0  0  0  0  0
  2  1  1  1  0  0  0
  2  3  1  0  0  0  0
  3  4  1  0  0  0  0
  4  5  2  0  0  0  0
  4  6  1  0  0  0  0
  6  7  1  0  0  0  0
  7  8  2  0  0  0  0
  8  9  1  0  0  0  0
  9 10  2  0  0  0  0
 10 11  1  0  0  0  0
 11 12  1  0  0  0  0
 12 13  1  0  0  0  0
 13 14  1  0  0  0  0
  9 14  1  0  0  0  0
 10 15  1  0  0  0  0
 15 16  2  0  0  0  0
  7 16  1  0  0  0  0
  6 17  1  0  0  0  0
 17 18  2  0  0  0  0
 17 19  2  0  0  0  0
 17 20  1  0  0  0  0
 20 21  2  0  0  0  0
 21 22  1  0  0  0  0
 22 23  1  0  0  0  0
 23 24  2  0  0  0  0
 24 25  1  0  0  0  0
 25 26  2  0  0  0  0
 22 26  1  0  0  0  0
 26 27  1  0  0  0  0
 27 28  2  0  0  0  0
 20 28  1  0  0  0  0
  2 29  1  0  0  0  0
 29 30  2  0  0  0  0
 30 31  1  0  0  0  0
 31 32  1  0  0  0  0
 31 33  2  0  0  0  0
 33 34  1  0  0  0  0
 34 35  2  0  0  0  0
 29 35  1  0  0  0  0
M  END
> <ID>
CPD_645

$$$$
CPD_650
  Mrv1822 09091914012D          

 34 38  0  0  0  0            999 V2000
    6.8282   -2.2450    0.0000 C   0  0  0  0  0  0  0  0  0  0  0  0
    7.6128   -1.9901    0.0000 N   0  0  0  0  0  0  0  0  0  0  0  0
    7.8677   -1.2055    0.0000 N   0  0  0  0  0  0  0  0  0  0  0  0
    8.6927   -1.2055    0.0000 C   0  0  0  0  0  0  0  0  0  0  0  0
    8.9477   -1.9901    0.0000 C   0  0  0  0  0  0  0  0  0  0  0  0
    9.7323   -2.2450    0.0000 Cl  0  0  0  0  0  0  0  0  0  0  0  0
    8.2802   -2.4750    0.0000 C   0  0  0  0  0  0  0  0  0  0  0  0
    8.2802   -3.3000    0.0000 C   0  0  0  0  0  0  0  0  0  0  0  0
    7.5658   -3.7125    0.0000 C   0  0  0  0  0  0  0  0  0  0  0  0
    7.5658   -4.5375    0.0000 C   0  0  0  0  0  0  0  0  0  0  0  0
    8.2802   -4.9500    0.0000 O   0  0  0  0  0  0  0  0  0  0  0  0
    6.8513   -4.9500    0.0000 N   0  0  0  0  0  0  0  0  0  0  0  0
    6.8513   -5.7750    0.0000 C   0  0  0  0  0  0  0  0  0  0  0  0
    6.1368   -6.1875    0.0000 C   0  0  0  0  0  0  0  0  0  0  0  0
    6.1368   -7.0125    0.0000 C   0  0  0  0  0  0  0  0  0  0  0  0
    6.8513   -7.4250    0.0000 C   0  0  0  0  0  0  0  0  0  0  0  0
    6.8513   -8.2500    0.0000 O   0  0  0  0  0  0  0  0  0  0  0  0
    6.1368   -8.6625    0.0000 C   0  0  0  0  0  0  0  0  0  0  0  0
    5.4223   -8.2500    0.0000 C   0  0  0  0  0  0  0  0  0  0  0  0
    5.4223   -7.4250    0.0000 O   0  0  0  0  0  0  0  0  0  0  0  0
    7.5658   -7.0125    0.0000 C   0  0  0  0  0  0  0  0  0  0  0  0
    7.5658   -6.1875    0.0000 C   0  0  0  0  0  0  0  0  0  0  0  0
    6.1368   -4.5375    0.0000 S   0  0  0  0  0  0  0  0  0  0  0  0
    6.5493   -3.8230    0.0000 O   0  0  0  0  0  0  0  0  0  0  0  0
    5.7243   -5.2520    0.0000 O   0  0  0  0  0  0  0  0  0  0  0  0
    5.4223   -4.1250    0.0000 C   0  0  0  0  0  0  0  0  0  0  0  0
    4.7079   -4.5375    0.0000 C   0  0  0  0  0  0  0  0  0  0  0  0
    3.9934   -4.1250    0.0000 N   0  0  0  0  0  0  0  0  0  0  0  0
    3.2088   -4.3799    0.0000 C   0  0  0  0  0  0  0  0  0  0  0  0
    2.7239   -3.7125    0.0000 N   0  0  0  0  0  0  0  0  0  0  0  0
    3.2088   -3.0451    0.0000 N   0  0  0  0  0  0  0  0  0  0  0  0
    3.9934   -3.3000    0.0000 C   0  0  0  0  0  0  0  0  0  0  0  0
    4.7079   -2.8875    0.0000 C   0  0  0  0  0  0  0  0  0  0  0  0
    5.4223   -3.3000    0.0000 C   0  0  0  0  0  0  0  0  0  0  0  0
  1  2  1  0  0  0  0
  2  3  1  0  0  0  0
  3  4  2  0  0  0  0
  4  5  1  0  0  0  0
  5  6  1  0  0  0  0
  5  7  2  0  0  0  0
  2  7  1  0  0  0  0
  7  8  1  0  0  0  0
  8  9  1  0  0  0  0
  9 10  1  0  0  0  0
 10 11  2  0  0  0  0
 10 12  1  0  0  0  0
 12 13  1  0  0  0  0
 13 14  2  0  0  0  0
 14 15  1  0  0  0  0
 15 16  2  0  0  0  0
 16 17  1  0  0  0  0
 17 18  1  0  0  0  0
 18 19  1  0  0  0  0
 19 20  1  0  0  0  0
 15 20  1  0  0  0  0
 16 21  1  0  0  0  0
 21 22  2  0  0  0  0
 13 22  1  0  0  0  0
 12 23  1  0  0  0  0
 23 24  2  0  0  0  0
 23 25  2  0  0  0  0
 23 26  1  0  0  0  0
 26 27  2  0  0  0  0
 27 28  1  0  0  0  0
 28 29  1  0  0  0  0
 29 30  2  0  0  0  0
 30 31  1  0  0  0  0
 31 32  2  0  0  0  0
 28 32  1  0  0  0  0
 32 33  1  0  0  0  0
 33 34  2  0  0  0  0
 26 34  1  0  0  0  0
M  END
> <ID>
CPD_650

$$$$
CPD_655
  Mrv1822 09091914012D          

 27 29  0  0  0  0            999 V2000
   -1.2054    0.9256    0.0000 C   0  0  0  0  0  0  0  0  0  0  0  0
   -0.3984    0.7541    0.0000 C   0  0  0  0  0  0  0  0  0  0  0  0
   -0.1435   -0.0305    0.0000 C   0  0  0  0  0  0  0  0  0  0  0  0
   -0.6284   -0.6979    0.0000 N   0  0  0  0  0  0  0  0  0  0  0  0
   -0.1435   -1.3654    0.0000 N   0  0  0  0  0  0  0  0  0  0  0  0
    0.6411   -1.1104    0.0000 C   0  0  0  0  0  0  0  0  0  0  0  0
    0.6411   -0.2854    0.0000 N   0  0  0  0  0  0  0  0  0  0  0  0
    1.3556    0.1271    0.0000 C   0  0  0  0  0  0  0  0  0  0  0  0
    2.0701   -0.2854    0.0000 C   0  0  0  0  0  0  0  0  0  0  0  0
    2.0701   -1.1104    0.0000 C   0  0  0  0  0  0  0  0  0  0  0  0
    1.3556   -1.5229    0.0000 C   0  0  0  0  0  0  0  0  0  0  0  0
    1.3556   -2.3479    0.0000 S   0  0  0  0  0  0  0  0  0  0  0  0
    0.5306   -2.3479    0.0000 O   0  0  0  0  0  0  0  0  0  0  0  0
    2.1806   -2.3479    0.0000 O   0  0  0  0  0  0  0  0  0  0  0  0
    1.3556   -3.1729    0.0000 N   0  0  0  0  0  0  0  0  0  0  0  0
    2.0701   -3.5854    0.0000 C   0  0  0  0  0  0  0  0  0  0  0  0
    2.0701   -4.4104    0.0000 C   0  0  0  0  0  0  0  0  0  0  0  0
    2.7845   -3.1729    0.0000 O   0  0  0  0  0  0  0  0  0  0  0  0
    0.6411   -3.5854    0.0000 C   0  0  0  0  0  0  0  0  0  0  0  0
    0.6411   -4.4104    0.0000 C   0  0  0  0  0  0  0  0  0  0  0  0
   -0.0734   -4.8229    0.0000 C   0  0  0  0  0  0  0  0  0  0  0  0
   -0.7878   -4.4104    0.0000 C   0  0  0  0  0  0  0  0  0  0  0  0
   -0.7878   -3.5854    0.0000 C   0  0  0  0  0  0  0  0  0  0  0  0
   -0.0734   -3.1729    0.0000 C   0  0  0  0  0  0  0  0  0  0  0  0
   -1.5023   -4.8229    0.0000 C   0  0  0  0  0  0  0  0  0  0  0  0
   -1.5023   -5.6479    0.0000 C   0  0  0  0  0  0  0  0  0  0  0  0
   -2.2168   -4.4104    0.0000 C   0  0  0  0  0  0  0  0  0  0  0  0
  1  2  1  0  0  0  0
  2  3  1  0  0  0  0
  3  4  2  0  0  0  0
  4  5  1  0  0  0  0
  5  6  2  0  0  0  0
  6  7  1  0  0  0  0
  3  7  1  0  0  0  0
  7  8  1  0  0  0  0
  8  9  2  0  0  0  0
  9 10  1  0  0  0  0
 10 11  2  0  0  0  0
  6 11  1  0  0  0  0
 11 12  1  0  0  0  0
 12 13  2  0  0  0  0
 12 14  2  0  0  0  0
 12 15  1  0  0  0  0
 15 16  1  0  0  0  0
 16 17  1  0  0  0  0
 16 18  2  0  0  0  0
 15 19  1  0  0  0  0
 19 20  2  0  0  0  0
 20 21  1  0  0  0  0
 21 22  2  0  0  0  0
 22 23  1  0  0  0  0
 23 24  2  0  0  0  0
 19 24  1  0  0  0  0
 22 25  1  0  0  0  0
 25 26  1  0  0  0  0
 25 27  1  0  0  0  0
M  END
> <ID>
CPD_655

$$$$
CPD_660
  Mrv1822 09091914012D          

 32 35  0  0  0  0            999 V2000
   -1.2054    0.9256    0.0000 C   0  0  0  0  0  0  0  0  0  0  0  0
   -0.3984    0.7541    0.0000 C   0  0  0  0  0  0  0  0  0  0  0  0
   -0.1435   -0.0305    0.0000 C   0  0  0  0  0  0  0  0  0  0  0  0
   -0.6284   -0.6979    0.0000 N   0  0  0  0  0  0  0  0  0  0  0  0
   -0.1435   -1.3654    0.0000 N   0  0  0  0  0  0  0  0  0  0  0  0
    0.6411   -1.1104    0.0000 C   0  0  0  0  0  0  0  0  0  0  0  0
    0.6411   -0.2854    0.0000 N   0  0  0  0  0  0  0  0  0  0  0  0
    1.3556    0.1271    0.0000 C   0  0  0  0  0  0  0  0  0  0  0  0
    2.0701   -0.2854    0.0000 C   0  0  0  0  0  0  0  0  0  0  0  0
    2.0701   -1.1104    0.0000 C   0  0  0  0  0  0  0  0  0  0  0  0
    1.3556   -1.5229    0.0000 C   0  0  0  0  0  0  0  0  0  0  0  0
    1.3556   -2.3479    0.0000 S   0  0  0  0  0  0  0  0  0  0  0  0
    0.5306   -2.3479    0.0000 O   0  0  0  0  0  0  0  0  0  0  0  0
    2.1806   -2.3479    0.0000 O   0  0  0  0  0  0  0  0  0  0  0  0
    1.3556   -3.1729    0.0000 N   0  0  0  0  0  0  0  0  0  0  0  0
    2.0701   -3.5854    0.0000 C   0  0  0  0  0  0  0  0  0  0  0  0
    2.0701   -4.4104    0.0000 O   0  0  0  0  0  0  0  0  0  0  0  0
    2.7845   -3.1729    0.0000 C   0  0  0  0  0  0  0  0  0  0  0  0
    2.8708   -2.3525    0.0000 C   0  0  0  0  0  0  0  0  0  0  0  0
    3.6777   -2.1809    0.0000 O   0  0  0  0  0  0  0  0  0  0  0  0
    4.0902   -2.8954    0.0000 C   0  0  0  0  0  0  0  0  0  0  0  0
    3.5382   -3.5085    0.0000 C   0  0  0  0  0  0  0  0  0  0  0  0
    3.7097   -4.3155    0.0000 O   0  0  0  0  0  0  0  0  0  0  0  0
    0.6411   -3.5854    0.0000 C   0  0  0  0  0  0  0  0  0  0  0  0
    0.6411   -4.4104    0.0000 C   0  0  0  0  0  0  0  0  0  0  0  0
   -0.0734   -4.8229    0.0000 C   0  0  0  0  0  0  0  0  0  0  0  0
   -0.7878   -4.4104    0.0000 C   0  0  0  0  0  0  0  0  0  0  0  0
   -0.7878   -3.5854    0.0000 C   0  0  0  0  0  0  0  0  0  0  0  0
   -0.0734   -3.1729    0.0000 C   0  0  0  0  0  0  0  0  0  0  0  0
   -1.5023   -4.8229    0.0000 C   0  0  0  0  0  0  0  0  0  0  0  0
   -1.5023   -5.6479    0.0000 C   0  0  0  0  0  0  0  0  0  0  0  0
   -2.2168   -4.4104    0.0000 C   0  0  0  0  0  0  0  0  0  0  0  0
  1  2  1  0  0  0  0
  2  3  1  0  0  0  0
  3  4  2  0  0  0  0
  4  5  1  0  0  0  0
  5  6  2  0  0  0  0
  6  7  1  0  0  0  0
  3  7  1  0  0  0  0
  7  8  1  0  0  0  0
  8  9  2  0  0  0  0
  9 10  1  0  0  0  0
 10 11  2  0  0  0  0
  6 11  1  0  0  0  0
 11 12  1  0  0  0  0
 12 13  2  0  0  0  0
 12 14  2  0  0  0  0
 12 15  1  0  0  0  0
 15 16  1  0  0  0  0
 16 17  2  0  0  0  0
 16 18  1  0  0  0  0
 18 19  1  0  0  0  0
 19 20  1  0  0  0  0
 20 21  1  0  0  0  0
 21 22  1  0  0  0  0
 18 22  1  0  0  0  0
 22 23  2  0  0  0  0
 15 24  1  0  0  0  0
 24 25  2  0  0  0  0
 25 26  1  0  0  0  0
 26 27  2  0  0  0  0
 27 28  1  0  0  0  0
 28 29  2  0  0  0  0
 24 29  1  0  0  0  0
 27 30  1  0  0  0  0
 30 31  1  0  0  0  0
 30 32  1  0  0  0  0
M  END
> <ID>
CPD_660

$$$$
CPD_665
  Mrv1822 09091914012D          

 32 36  0  0  0  0            999 V2000
    4.2135    1.5229    0.0000 O   0  0  0  0  0  0  0  0  0  0  0  0
    4.2135    0.6979    0.0000 C   0  0  0  0  0  0  0  0  0  0  0  0
    3.4990    0.2854    0.0000 N   0  0  0  0  0  0  0  0  0  0  0  0
    3.4990   -0.5396    0.0000 C   0  0  0  0  0  0  0  0  0  0  0  0
    4.2135   -0.9521    0.0000 C   0  0  0  0  0  0  0  0  0  0  0  0
    4.2135   -1.7771    0.0000 C   0  0  0  0  0  0  0  0  0  0  0  0
    3.4990   -2.1896    0.0000 C   0  0  0  0  0  0  0  0  0  0  0  0
    2.7845   -1.7771    0.0000 C   0  0  0  0  0  0  0  0  0  0  0  0
    2.7845   -0.9521    0.0000 C   0  0  0  0  0  0  0  0  0  0  0  0
    2.7845    0.6979    0.0000 S   0  0  0  0  0  0  0  0  0  0  0  0
    2.3720   -0.0165    0.0000 O   0  0  0  0  0  0  0  0  0  0  0  0
    3.1970    1.4124    0.0000 O   0  0  0  0  0  0  0  0  0  0  0  0
    2.0701    1.1104    0.0000 C   0  0  0  0  0  0  0  0  0  0  0  0
    1.3556    0.6979    0.0000 C   0  0  0  0  0  0  0  0  0  0  0  0
    0.6411    1.1104    0.0000 N   0  0  0  0  0  0  0  0  0  0  0  0
   -0.1435    0.8555    0.0000 C   0  0  0  0  0  0  0  0  0  0  0  0
   -0.6284    1.5229    0.0000 N   0  0  0  0  0  0  0  0  0  0  0  0
   -0.1435    2.1904    0.0000 N   0  0  0  0  0  0  0  0  0  0  0  0
    0.6411    1.9354    0.0000 C   0  0  0  0  0  0  0  0  0  0  0  0
    1.3556    2.3479    0.0000 C   0  0  0  0  0  0  0  0  0  0  0  0
    2.0701    1.9354    0.0000 C   0  0  0  0  0  0  0  0  0  0  0  0
    4.9279    0.2854    0.0000 C   0  0  0  0  0  0  0  0  0  0  0  0
    5.7126    0.0305    0.0000 C   0  0  0  0  0  0  0  0  0  0  0  0
    5.7126   -0.7945    0.0000 C   0  0  0  0  0  0  0  0  0  0  0  0
    4.9279   -1.0494    0.0000 C   0  0  0  0  0  0  0  0  0  0  0  0
    4.4430   -0.3820    0.0000 C   0  0  0  0  0  0  0  0  0  0  0  0
    5.2635    1.0391    0.0000 C   0  0  0  0  0  0  0  0  0  0  0  0
    4.7786    1.7066    0.0000 C   0  0  0  0  0  0  0  0  0  0  0  0
    5.1141    2.4602    0.0000 C   0  0  0  0  0  0  0  0  0  0  0  0
    5.9346    2.5465    0.0000 C   0  0  0  0  0  0  0  0  0  0  0  0
    6.4195    1.8790    0.0000 C   0  0  0  0  0  0  0  0  0  0  0  0
    6.0840    1.1254    0.0000 C   0  0  0  0  0  0  0  0  0  0  0  0
  1  2  2  0  0  0  0
  2  3  1  0  0  0  0
  3  4  1  0  0  0  0
  4  5  2  0  0  0  0
  5  6  1  0  0  0  0
  6  7  2  0  0  0  0
  7  8  1  0  0  0  0
  8  9  2  0  0  0  0
  4  9  1  0  0  0  0
  3 10  1  0  0  0  0
 10 11  2  0  0  0  0
 10 12  2  0  0  0  0
 10 13  1  0  0  0  0
 13 14  2  0  0  0  0
 14 15  1  0  0  0  0
 15 16  1  0  0  0  0
 16 17  2  0  0  0  0
 17 18  1  0  0  0  0
 18 19  2  0  0  0  0
 15 19  1  0  0  0  0
 19 20  1  0  0  0  0
 20 21  2  0  0  0  0
 13 21  1  0  0  0  0
  2 22  1  0  0  0  0
 22 23  1  0  0  0  0
 23 24  1  0  0  0  0
 24 25  1  0  0  0  0
 25 26  1  0  0  0  0
 22 26  1  0  0  0  0
 22 27  1  0  0  0  0
 27 28  2  0  0  0  0
 28 29  1  0  0  0  0
 29 30  2  0  0  0  0
 30 31  1  0  0  0  0
 31 32  2  0  0  0  0
 27 32  1  0  0  0  0
M  END
> <ID>
CPD_665

$$$$
CPD_670
  Mrv1822 09091914012D          

 23 25  0  0  0  0            999 V2000
   -1.4289   -2.4750    0.0000 C   0  0  0  0  0  0  0  0  0  0  0  0
   -0.7145   -2.8875    0.0000 C   0  0  0  0  0  0  0  0  0  0  0  0
    0.0000   -2.4750    0.0000 C   0  0  0  0  0  0  0  0  0  0  0  0
    0.0000   -1.6500    0.0000 O   0  0  0  0  0  0  0  0  0  0  0  0
    0.7145   -2.8875    0.0000 N   0  0  0  0  0  0  0  0  0  0  0  0
    0.7145   -3.7125    0.0000 C   0  0  0  0  0  0  0  0  0  0  0  0
    1.4289   -4.1250    0.0000 C   0  0  0  0  0  0  0  0  0  0  0  0
    1.4289   -4.9500    0.0000 C   0  0  0  0  0  0  0  0  0  0  0  0
    0.7145   -5.3625    0.0000 C   0  0  0  0  0  0  0  0  0  0  0  0
    0.0000   -4.9500    0.0000 C   0  0  0  0  0  0  0  0  0  0  0  0
    0.0000   -4.1250    0.0000 C   0  0  0  0  0  0  0  0  0  0  0  0
    1.4289   -2.4750    0.0000 S   0  0  0  0  0  0  0  0  0  0  0  0
    1.0164   -1.7605    0.0000 O   0  0  0  0  0  0  0  0  0  0  0  0
    1.8414   -3.1895    0.0000 O   0  0  0  0  0  0  0  0  0  0  0  0
    2.1434   -2.0625    0.0000 C   0  0  0  0  0  0  0  0  0  0  0  0
    2.1434   -1.2375    0.0000 C   0  0  0  0  0  0  0  0  0  0  0  0
    2.8579   -0.8250    0.0000 N   0  0  0  0  0  0  0  0  0  0  0  0
    3.0294   -0.0180    0.0000 C   0  0  0  0  0  0  0  0  0  0  0  0
    3.8499    0.0682    0.0000 N   0  0  0  0  0  0  0  0  0  0  0  0
    4.1854   -0.6855    0.0000 N   0  0  0  0  0  0  0  0  0  0  0  0
    3.5724   -1.2375    0.0000 C   0  0  0  0  0  0  0  0  0  0  0  0
    3.5724   -2.0625    0.0000 C   0  0  0  0  0  0  0  0  0  0  0  0
    2.8579   -2.4750    0.0000 C   0  0  0  0  0  0  0  0  0  0  0  0
  1  2  1  0  0  0  0
  2  3  1  0  0  0  0
  3  4  2  0  0  0  0
  3  5  1  0  0  0  0
  5  6  1  0  0  0  0
  6  7  2  0  0  0  0
  7  8  1  0  0  0  0
  8  9  2  0  0  0  0
  9 10  1  0  0  0  0
 10 11  2  0  0  0  0
  6 11  1  0  0  0  0
  5 12  1  0  0  0  0
 12 13  2  0  0  0  0
 12 14  2  0  0  0  0
 12 15  1  0  0  0  0
 15 16  2  0  0  0  0
 16 17  1  0  0  0  0
 17 18  1  0  0  0  0
 18 19  2  0  0  0  0
 19 20  1  0  0  0  0
 20 21  2  0  0  0  0
 17 21  1  0  0  0  0
 21 22  1  0  0  0  0
 22 23  2  0  0  0  0
 15 23  1  0  0  0  0
M  END
> <ID>
CPD_670

$$$$
CPD_675
  Mrv1822 09091914012D          

 37 41  0  0  0  0            999 V2000
   -0.3984    0.7541    0.0000 C   0  0  0  0  0  0  0  0  0  0  0  0
   -0.1435   -0.0305    0.0000 C   0  0  0  0  0  0  0  0  0  0  0  0
   -0.6284   -0.6979    0.0000 N   0  0  0  0  0  0  0  0  0  0  0  0
   -0.1435   -1.3654    0.0000 N   0  0  0  0  0  0  0  0  0  0  0  0
    0.6411   -1.1104    0.0000 C   0  0  0  0  0  0  0  0  0  0  0  0
    0.6411   -0.2854    0.0000 N   0  0  0  0  0  0  0  0  0  0  0  0
    1.3556    0.1271    0.0000 C   0  0  0  0  0  0  0  0  0  0  0  0
    2.0701   -0.2854    0.0000 C   0  0  0  0  0  0  0  0  0  0  0  0
    2.0701   -1.1104    0.0000 C   0  0  0  0  0  0  0  0  0  0  0  0
    1.3556   -1.5229    0.0000 C   0  0  0  0  0  0  0  0  0  0  0  0
    1.3556   -2.3479    0.0000 S   0  0  0  0  0  0  0  0  0  0  0  0
    0.5306   -2.3479    0.0000 O   0  0  0  0  0  0  0  0  0  0  0  0
    2.1806   -2.3479    0.0000 O   0  0  0  0  0  0  0  0  0  0  0  0
    1.3556   -3.1729    0.0000 N   0  0  0  0  0  0  0  0  0  0  0  0
    2.0701   -3.5854    0.0000 C   0  0  0  0  0  0  0  0  0  0  0  0
    2.7845   -3.1729    0.0000 O   0  0  0  0  0  0  0  0  0  0  0  0
    2.0701   -4.4104    0.0000 C   0  0  0  0  0  0  0  0  0  0  0  0
    2.7375   -4.8954    0.0000 C   0  0  0  0  0  0  0  0  0  0  0  0
    3.5221   -4.6404    0.0000 C   0  0  0  0  0  0  0  0  0  0  0  0
    4.1352   -5.1925    0.0000 C   0  0  0  0  0  0  0  0  0  0  0  0
    4.9198   -4.9375    0.0000 C   0  0  0  0  0  0  0  0  0  0  0  0
    5.0914   -4.1305    0.0000 F   0  0  0  0  0  0  0  0  0  0  0  0
    5.5329   -5.4896    0.0000 C   0  0  0  0  0  0  0  0  0  0  0  0
    5.3614   -6.2965    0.0000 C   0  0  0  0  0  0  0  0  0  0  0  0
    4.5768   -6.5515    0.0000 C   0  0  0  0  0  0  0  0  0  0  0  0
    3.9637   -5.9994    0.0000 C   0  0  0  0  0  0  0  0  0  0  0  0
    2.4826   -5.6800    0.0000 N   0  0  0  0  0  0  0  0  0  0  0  0
    1.6576   -5.6800    0.0000 N   0  0  0  0  0  0  0  0  0  0  0  0
    1.4026   -4.8954    0.0000 C   0  0  0  0  0  0  0  0  0  0  0  0
    0.6411   -3.5854    0.0000 C   0  0  0  0  0  0  0  0  0  0  0  0
    0.6411   -4.4104    0.0000 C   0  0  0  0  0  0  0  0  0  0  0  0
   -0.0734   -4.8229    0.0000 C   0  0  0  0  0  0  0  0  0  0  0  0
   -0.0734   -5.6479    0.0000 F   0  0  0  0  0  0  0  0  0  0  0  0
   -0.7878   -4.4104    0.0000 C   0  0  0  0  0  0  0  0  0  0  0  0
   -0.7878   -3.5854    0.0000 C   0  0  0  0  0  0  0  0  0  0  0  0
   -1.5023   -3.1729    0.0000 F   0  0  0  0  0  0  0  0  0  0  0  0
   -0.0734   -3.1729    0.0000 C   0  0  0  0  0  0  0  0  0  0  0  0
  1  2  1  0  0  0  0
  2  3  2  0  0  0  0
  3  4  1  0  0  0  0
  4  5  2  0  0  0  0
  5  6  1  0  0  0  0
  2  6  1  0  0  0  0
  6  7  1  0  0  0  0
  7  8  2  0  0  0  0
  8  9  1  0  0  0  0
  9 10  2  0  0  0  0
  5 10  1  0  0  0  0
 10 11  1  0  0  0  0
 11 12  2  0  0  0  0
 11 13  2  0  0  0  0
 11 14  1  0  0  0  0
 14 15  1  0  0  0  0
 15 16  2  0  0  0  0
 15 17  1  0  0  0  0
 17 18  2  0  0  0  0
 18 19  1  0  0  0  0
 19 20  1  0  0  0  0
 20 21  2  0  0  0  0
 21 22  1  0  0  0  0
 21 23  1  0  0  0  0
 23 24  2  0  0  0  0
 24 25  1  0  0  0  0
 25 26  2  0  0  0  0
 20 26  1  0  0  0  0
 18 27  1  0  0  0  0
 27 28  1  0  0  0  0
 28 29  2  0  0  0  0
 17 29  1  0  0  0  0
 14 30  1  0  0  0  0
 30 31  2  0  0  0  0
 31 32  1  0  0  0  0
 32 33  1  0  0  0  0
 32 34  2  0  0  0  0
 34 35  1  0  0  0  0
 35 36  1  0  0  0  0
 35 37  2  0  0  0  0
 30 37  1  0  0  0  0
M  END
> <ID>
CPD_675

$$$$
CPD_680
  Mrv1822 09091914012D          

 35 38  0  0  0  0            999 V2000
    3.2822    8.2368    0.0000 C   0  0  0  0  0  0  0  0  0  0  0  0
    2.9466    7.4831    0.0000 N   0  0  0  0  0  0  0  0  0  0  0  0
    2.1261    7.3969    0.0000 C   0  0  0  0  0  0  0  0  0  0  0  0
    3.4315    6.8157    0.0000 C   0  0  0  0  0  0  0  0  0  0  0  0
    4.2520    6.9019    0.0000 O   0  0  0  0  0  0  0  0  0  0  0  0
    3.0960    6.0620    0.0000 C   0  0  0  0  0  0  0  0  0  0  0  0
    3.5809    5.3945    0.0000 N   0  0  0  0  0  0  0  0  0  0  0  0
    4.4059    5.3945    0.0000 C   0  0  0  0  0  0  0  0  0  0  0  0
    4.6608    4.6099    0.0000 C   0  0  0  0  0  0  0  0  0  0  0  0
    3.9934    4.1250    0.0000 C   0  0  0  0  0  0  0  0  0  0  0  0
    3.3260    4.6099    0.0000 N   0  0  0  0  0  0  0  0  0  0  0  0
    3.9934    3.3000    0.0000 C   0  0  0  0  0  0  0  0  0  0  0  0
    4.7079    2.8875    0.0000 O   0  0  0  0  0  0  0  0  0  0  0  0
    3.2789    2.8875    0.0000 N   0  0  0  0  0  0  0  0  0  0  0  0
    2.5645    3.3000    0.0000 C   0  0  0  0  0  0  0  0  0  0  0  0
    1.8500    2.8875    0.0000 C   0  0  0  0  0  0  0  0  0  0  0  0
    1.1355    3.3000    0.0000 C   0  0  0  0  0  0  0  0  0  0  0  0
    0.4210    2.8875    0.0000 F   0  0  0  0  0  0  0  0  0  0  0  0
    1.1355    4.1250    0.0000 C   0  0  0  0  0  0  0  0  0  0  0  0
    1.8500    4.5375    0.0000 C   0  0  0  0  0  0  0  0  0  0  0  0
    1.8500    5.3625    0.0000 F   0  0  0  0  0  0  0  0  0  0  0  0
    2.5645    4.1250    0.0000 C   0  0  0  0  0  0  0  0  0  0  0  0
    3.2789    2.0625    0.0000 S   0  0  0  0  0  0  0  0  0  0  0  0
    2.4539    2.0625    0.0000 O   0  0  0  0  0  0  0  0  0  0  0  0
    4.1039    2.0625    0.0000 O   0  0  0  0  0  0  0  0  0  0  0  0
    3.2789    1.2375    0.0000 C   0  0  0  0  0  0  0  0  0  0  0  0
    3.9934    0.8250    0.0000 C   0  0  0  0  0  0  0  0  0  0  0  0
    3.9934    0.0000    0.0000 C   0  0  0  0  0  0  0  0  0  0  0  0
    3.2789   -0.4125    0.0000 C   0  0  0  0  0  0  0  0  0  0  0  0
    2.5645    0.0000    0.0000 N   0  0  0  0  0  0  0  0  0  0  0  0
    1.7798   -0.2549    0.0000 C   0  0  0  0  0  0  0  0  0  0  0  0
    1.5249   -1.0396    0.0000 C   0  0  0  0  0  0  0  0  0  0  0  0
    1.2949    0.4125    0.0000 N   0  0  0  0  0  0  0  0  0  0  0  0
    1.7798    1.0799    0.0000 N   0  0  0  0  0  0  0  0  0  0  0  0
    2.5645    0.8250    0.0000 C   0  0  0  0  0  0  0  0  0  0  0  0
  1  2  1  0  0  0  0
  2  3  1  0  0  0  0
  2  4  1  0  0  0  0
  4  5  2  0  0  0  0
  4  6  1  0  0  0  0
  6  7  1  0  0  0  0
  7  8  1  0  0  0  0
  8  9  2  0  0  0  0
  9 10  1  0  0  0  0
 10 11  2  0  0  0  0
  7 11  1  0  0  0  0
 10 12  1  0  0  0  0
 12 13  2  0  0  0  0
 12 14  1  0  0  0  0
 14 15  1  0  0  0  0
 15 16  2  0  0  0  0
 16 17  1  0  0  0  0
 17 18  1  0  0  0  0
 17 19  2  0  0  0  0
 19 20  1  0  0  0  0
 20 21  1  0  0  0  0
 20 22  2  0  0  0  0
 15 22  1  0  0  0  0
 14 23  1  0  0  0  0
 23 24  2  0  0  0  0
 23 25  2  0  0  0  0
 23 26  1  0  0  0  0
 26 27  2  0  0  0  0
 27 28  1  0  0  0  0
 28 29  2  0  0  0  0
 29 30  1  0  0  0  0
 30 31  1  0  0  0  0
 31 32  1  0  0  0  0
 31 33  2  0  0  0  0
 33 34  1  0  0  0  0
 34 35  2  0  0  0  0
 26 35  1  0  0  0  0
 30 35  1  0  0  0  0
M  END
> <ID>
CPD_680

$$$$
CPD_685
  Mrv1822 09091914012D          

 39 43  0  0  0  0            999 V2000
    1.5623   -9.3101    0.0000 C   0  0  0  0  0  0  0  0  0  0  0  0
    1.0102   -8.6970    0.0000 C   0  0  0  0  0  0  0  0  0  0  0  0
    1.2652   -7.9124    0.0000 O   0  0  0  0  0  0  0  0  0  0  0  0
    0.7132   -7.2993    0.0000 C   0  0  0  0  0  0  0  0  0  0  0  0
   -0.0938   -7.4708    0.0000 O   0  0  0  0  0  0  0  0  0  0  0  0
    0.9681   -6.5147    0.0000 C   0  0  0  0  0  0  0  0  0  0  0  0
    0.4161   -5.9016    0.0000 C   0  0  0  0  0  0  0  0  0  0  0  0
    0.6710   -5.1170    0.0000 C   0  0  0  0  0  0  0  0  0  0  0  0
    1.4780   -4.9454    0.0000 C   0  0  0  0  0  0  0  0  0  0  0  0
    2.0300   -5.5585    0.0000 C   0  0  0  0  0  0  0  0  0  0  0  0
    1.7751   -6.3432    0.0000 C   0  0  0  0  0  0  0  0  0  0  0  0
    1.7329   -4.1608    0.0000 N   0  0  0  0  0  0  0  0  0  0  0  0
    1.1809   -3.5477    0.0000 C   0  0  0  0  0  0  0  0  0  0  0  0
    0.3739   -3.7192    0.0000 O   0  0  0  0  0  0  0  0  0  0  0  0
    1.4358   -2.7631    0.0000 C   0  0  0  0  0  0  0  0  0  0  0  0
    0.8838   -2.1500    0.0000 C   0  0  0  0  0  0  0  0  0  0  0  0
    1.1387   -1.3654    0.0000 N   0  0  0  0  0  0  0  0  0  0  0  0
    0.6538   -0.6979    0.0000 C   0  0  0  0  0  0  0  0  0  0  0  0
    1.1387   -0.0305    0.0000 C   0  0  0  0  0  0  0  0  0  0  0  0
    0.8838    0.7541    0.0000 C   0  0  0  0  0  0  0  0  0  0  0  0
    1.4358    1.3672    0.0000 N   0  0  0  0  0  0  0  0  0  0  0  0
    1.1809    2.1518    0.0000 C   0  0  0  0  0  0  0  0  0  0  0  0
    1.7329    2.7649    0.0000 C   0  0  0  0  0  0  0  0  0  0  0  0
    2.5399    2.5934    0.0000 O   0  0  0  0  0  0  0  0  0  0  0  0
    2.7948    1.8088    0.0000 C   0  0  0  0  0  0  0  0  0  0  0  0
    2.2428    1.1957    0.0000 C   0  0  0  0  0  0  0  0  0  0  0  0
    1.9233   -0.2854    0.0000 C   0  0  0  0  0  0  0  0  0  0  0  0
    2.6378    0.1271    0.0000 C   0  0  0  0  0  0  0  0  0  0  0  0
    3.3523   -0.2854    0.0000 C   0  0  0  0  0  0  0  0  0  0  0  0
    3.3523   -1.1104    0.0000 C   0  0  0  0  0  0  0  0  0  0  0  0
    2.6378   -1.5229    0.0000 C   0  0  0  0  0  0  0  0  0  0  0  0
    1.9233   -1.1104    0.0000 C   0  0  0  0  0  0  0  0  0  0  0  0
    2.5399   -3.9893    0.0000 C   0  0  0  0  0  0  0  0  0  0  0  0
    2.7948   -3.2047    0.0000 N   0  0  0  0  0  0  0  0  0  0  0  0
    3.6018   -3.0331    0.0000 C   0  0  0  0  0  0  0  0  0  0  0  0
    4.1538   -3.6462    0.0000 C   0  0  0  0  0  0  0  0  0  0  0  0
    3.8989   -4.4309    0.0000 C   0  0  0  0  0  0  0  0  0  0  0  0
    3.0919   -4.6024    0.0000 C   0  0  0  0  0  0  0  0  0  0  0  0
    2.8370   -5.3870    0.0000 N   0  0  0  0  0  0  0  0  0  0  0  0
  1  2  1  0  0  0  0
  2  3  1  0  0  0  0
  3  4  1  0  0  0  0
  4  5  2  0  0  0  0
  4  6  1  0  0  0  0
  6  7  2  0  0  0  0
  7  8  1  0  0  0  0
  8  9  2  0  0  0  0
  9 10  1  0  0  0  0
 10 11  2  0  0  0  0
  6 11  1  0  0  0  0
  9 12  1  0  0  0  0
 12 13  1  0  0  0  0
 13 14  2  0  0  0  0
 13 15  1  0  0  0  0
 15 16  1  0  0  0  0
 16 17  1  0  0  0  0
 17 18  1  0  0  0  0
 18 19  2  0  0  0  0
 19 20  1  0  0  0  0
 20 21  1  0  0  0  0
 21 22  1  0  0  0  0
 22 23  1  0  0  0  0
 23 24  1  0  0  0  0
 24 25  1  0  0  0  0
 25 26  1  0  0  0  0
 21 26  1  0  0  0  0
 19 27  1  0  0  0  0
 27 28  2  0  0  0  0
 28 29  1  0  0  0  0
 29 30  2  0  0  0  0
 30 31  1  0  0  0  0
 31 32  2  0  0  0  0
 17 32  1  0  0  0  0
 27 32  1  0  0  0  0
 12 33  1  0  0  0  0
 33 34  2  0  0  0  0
 34 35  1  0  0  0  0
 35 36  2  0  0  0  0
 36 37  1  0  0  0  0
 37 38  2  0  0  0  0
 33 38  1  0  0  0  0
 38 39  1  0  0  0  0
M  END
> <ID>
CPD_685

$$$$
CPD_690
  Mrv1822 09091914012D          

 28 30  0  0  0  0            999 V2000
    2.8579   -0.0000    0.0000 C   0  0  0  0  0  0  0  0  0  0  0  0
    2.1434   -0.4125    0.0000 O   0  0  0  0  0  0  0  0  0  0  0  0
    2.1434   -1.2375    0.0000 C   0  0  0  0  0  0  0  0  0  0  0  0
    2.8579   -1.6500    0.0000 O   0  0  0  0  0  0  0  0  0  0  0  0
    1.4289   -1.6500    0.0000 N   0  0  0  0  0  0  0  0  0  0  0  0
    1.4289   -2.4750    0.0000 C   0  0  0  0  0  0  0  0  0  0  0  0
    2.0964   -2.9599    0.0000 N   0  0  0  0  0  0  0  0  0  0  0  0
    1.8414   -3.7445    0.0000 O   0  0  0  0  0  0  0  0  0  0  0  0
    1.0164   -3.7445    0.0000 N   0  0  0  0  0  0  0  0  0  0  0  0
    0.7615   -2.9599    0.0000 C   0  0  0  0  0  0  0  0  0  0  0  0
   -0.0231   -2.7050    0.0000 N   0  0  0  0  0  0  0  0  0  0  0  0
   -0.6362   -3.2570    0.0000 C   0  0  0  0  0  0  0  0  0  0  0  0
   -0.4647   -4.0640    0.0000 O   0  0  0  0  0  0  0  0  0  0  0  0
   -1.4208   -3.0021    0.0000 C   0  0  0  0  0  0  0  0  0  0  0  0
   -2.0339   -3.5541    0.0000 C   0  0  0  0  0  0  0  0  0  0  0  0
   -2.8186   -3.2992    0.0000 C   0  0  0  0  0  0  0  0  0  0  0  0
   -3.4316   -3.8512    0.0000 C   0  0  0  0  0  0  0  0  0  0  0  0
   -4.2163   -3.5963    0.0000 N   0  0  0  0  0  0  0  0  0  0  0  0
   -4.8837   -4.0812    0.0000 C   0  0  0  0  0  0  0  0  0  0  0  0
   -5.5511   -3.5963    0.0000 C   0  0  0  0  0  0  0  0  0  0  0  0
   -6.3358   -3.8512    0.0000 Cl  0  0  0  0  0  0  0  0  0  0  0  0
   -5.2962   -2.8116    0.0000 C   0  0  0  0  0  0  0  0  0  0  0  0
   -4.4712   -2.8116    0.0000 N   0  0  0  0  0  0  0  0  0  0  0  0
   -2.9901   -2.4922    0.0000 C   0  0  0  0  0  0  0  0  0  0  0  0
   -3.7747   -2.2373    0.0000 O   0  0  0  0  0  0  0  0  0  0  0  0
   -3.9462   -1.4303    0.0000 C   0  0  0  0  0  0  0  0  0  0  0  0
   -2.3770   -1.9402    0.0000 C   0  0  0  0  0  0  0  0  0  0  0  0
   -1.5924   -2.1951    0.0000 C   0  0  0  0  0  0  0  0  0  0  0  0
  1  2  1  0  0  0  0
  2  3  1  0  0  0  0
  3  4  2  0  0  0  0
  3  5  1  0  0  0  0
  5  6  1  0  0  0  0
  6  7  2  0  0  0  0
  7  8  1  0  0  0  0
  8  9  1  0  0  0  0
  9 10  2  0  0  0  0
  6 10  1  0  0  0  0
 10 11  1  0  0  0  0
 11 12  1  0  0  0  0
 12 13  2  0  0  0  0
 12 14  1  0  0  0  0
 14 15  2  0  0  0  0
 15 16  1  0  0  0  0
 16 17  1  0  0  0  0
 17 18  1  0  0  0  0
 18 19  1  0  0  0  0
 19 20  2  0  0  0  0
 20 21  1  0  0  0  0
 20 22  1  0  0  0  0
 22 23  2  0  0  0  0
 18 23  1  0  0  0  0
 16 24  2  0  0  0  0
 24 25  1  0  0  0  0
 25 26  1  0  0  0  0
 24 27  1  0  0  0  0
 27 28  2  0  0  0  0
 14 28  1  0  0  0  0
M  END
> <ID>
CPD_690

$$$$
CPD_695
  Mrv1822 09091914012D          

 23 24  0  0  0  0            999 V2000
    2.8579   -0.0000    0.0000 C   0  0  0  0  0  0  0  0  0  0  0  0
    2.1434   -0.4125    0.0000 O   0  0  0  0  0  0  0  0  0  0  0  0
    2.1434   -1.2375    0.0000 C   0  0  0  0  0  0  0  0  0  0  0  0
    2.8579   -1.6500    0.0000 O   0  0  0  0  0  0  0  0  0  0  0  0
    1.4289   -1.6500    0.0000 N   0  0  0  0  0  0  0  0  0  0  0  0
    1.4289   -2.4750    0.0000 C   0  0  0  0  0  0  0  0  0  0  0  0
    2.0964   -2.9599    0.0000 N   0  0  0  0  0  0  0  0  0  0  0  0
    1.8414   -3.7445    0.0000 O   0  0  0  0  0  0  0  0  0  0  0  0
    1.0164   -3.7445    0.0000 N   0  0  0  0  0  0  0  0  0  0  0  0
    0.7615   -2.9599    0.0000 C   0  0  0  0  0  0  0  0  0  0  0  0
   -0.0231   -2.7050    0.0000 N   0  0  0  0  0  0  0  0  0  0  0  0
   -0.6362   -3.2570    0.0000 C   0  0  0  0  0  0  0  0  0  0  0  0
   -0.4647   -4.0640    0.0000 O   0  0  0  0  0  0  0  0  0  0  0  0
   -1.4208   -3.0021    0.0000 C   0  0  0  0  0  0  0  0  0  0  0  0
   -2.0339   -3.5541    0.0000 C   0  0  0  0  0  0  0  0  0  0  0  0
   -1.8624   -4.3611    0.0000 F   0  0  0  0  0  0  0  0  0  0  0  0
   -2.8186   -3.2992    0.0000 C   0  0  0  0  0  0  0  0  0  0  0  0
   -3.4316   -3.8512    0.0000 O   0  0  0  0  0  0  0  0  0  0  0  0
   -3.2601   -4.6582    0.0000 C   0  0  0  0  0  0  0  0  0  0  0  0
   -2.9901   -2.4922    0.0000 C   0  0  0  0  0  0  0  0  0  0  0  0
   -2.3770   -1.9402    0.0000 C   0  0  0  0  0  0  0  0  0  0  0  0
   -1.5924   -2.1951    0.0000 C   0  0  0  0  0  0  0  0  0  0  0  0
   -0.9793   -1.6431    0.0000 Cl  0  0  0  0  0  0  0  0  0  0  0  0
  1  2  1  0  0  0  0
  2  3  1  0  0  0  0
  3  4  2  0  0  0  0
  3  5  1  0  0  0  0
  5  6  1  0  0  0  0
  6  7  2  0  0  0  0
  7  8  1  0  0  0  0
  8  9  1  0  0  0  0
  9 10  2  0  0  0  0
  6 10  1  0  0  0  0
 10 11  1  0  0  0  0
 11 12  1  0  0  0  0
 12 13  2  0  0  0  0
 12 14  1  0  0  0  0
 14 15  2  0  0  0  0
 15 16  1  0  0  0  0
 15 17  1  0  0  0  0
 17 18  1  0  0  0  0
 18 19  1  0  0  0  0
 17 20  2  0  0  0  0
 20 21  1  0  0  0  0
 21 22  2  0  0  0  0
 14 22  1  0  0  0  0
 22 23  1  0  0  0  0
M  END
> <ID>
CPD_695

$$$$
CPD_700
  Mrv1822 09091914012D          

 34 36  0  0  0  0            999 V2000
   -2.4664   -4.2843    0.0000 C   0  0  0  0  0  0  0  0  0  0  0  0
   -1.7064   -4.6052    0.0000 O   0  0  0  0  0  0  0  0  0  0  0  0
   -1.0485   -4.1075    0.0000 C   0  0  0  0  0  0  0  0  0  0  0  0
   -1.1505   -3.2888    0.0000 O   0  0  0  0  0  0  0  0  0  0  0  0
   -0.2885   -4.4284    0.0000 N   0  0  0  0  0  0  0  0  0  0  0  0
    0.3695   -3.9307    0.0000 C   0  0  0  0  0  0  0  0  0  0  0  0
    0.3536   -3.1059    0.0000 N   0  0  0  0  0  0  0  0  0  0  0  0
    1.1331   -2.8358    0.0000 O   0  0  0  0  0  0  0  0  0  0  0  0
    1.6308   -3.4938    0.0000 N   0  0  0  0  0  0  0  0  0  0  0  0
    1.1589   -4.1704    0.0000 C   0  0  0  0  0  0  0  0  0  0  0  0
    1.4289   -4.9500    0.0000 N   0  0  0  0  0  0  0  0  0  0  0  0
    0.8889   -5.5736    0.0000 C   0  0  0  0  0  0  0  0  0  0  0  0
    0.0787   -5.4177    0.0000 O   0  0  0  0  0  0  0  0  0  0  0  0
    1.1589   -6.3532    0.0000 C   0  0  0  0  0  0  0  0  0  0  0  0
    1.9690   -6.5091    0.0000 C   0  0  0  0  0  0  0  0  0  0  0  0
    2.2391   -7.2887    0.0000 N   0  0  0  0  0  0  0  0  0  0  0  0
    3.0492   -7.4446    0.0000 C   0  0  0  0  0  0  0  0  0  0  0  0
    3.3193   -8.2241    0.0000 C   0  0  0  0  0  0  0  0  0  0  0  0
    4.1087   -8.4639    0.0000 C   0  0  0  0  0  0  0  0  0  0  0  0
    4.1246   -9.2887    0.0000 C   0  0  0  0  0  0  0  0  0  0  0  0
    3.3450   -9.5587    0.0000 C   0  0  0  0  0  0  0  0  0  0  0  0
    2.8473   -8.9008    0.0000 O   0  0  0  0  0  0  0  0  0  0  0  0
    2.5091   -5.8855    0.0000 C   0  0  0  0  0  0  0  0  0  0  0  0
    2.2391   -5.1059    0.0000 O   0  0  0  0  0  0  0  0  0  0  0  0
    3.3193   -6.0414    0.0000 O   0  0  0  0  0  0  0  0  0  0  0  0
    3.8593   -5.4177    0.0000 C   0  0  0  0  0  0  0  0  0  0  0  0
    4.6695   -5.5736    0.0000 C   0  0  0  0  0  0  0  0  0  0  0  0
    5.2096   -4.9500    0.0000 O   0  0  0  0  0  0  0  0  0  0  0  0
    6.0197   -5.1059    0.0000 C   0  0  0  0  0  0  0  0  0  0  0  0
    6.5598   -4.4823    0.0000 C   0  0  0  0  0  0  0  0  0  0  0  0
    7.3699   -4.6382    0.0000 C   0  0  0  0  0  0  0  0  0  0  0  0
    7.6400   -5.4177    0.0000 C   0  0  0  0  0  0  0  0  0  0  0  0
    7.0999   -6.0414    0.0000 C   0  0  0  0  0  0  0  0  0  0  0  0
    6.2897   -5.8855    0.0000 C   0  0  0  0  0  0  0  0  0  0  0  0
  1  2  1  0  0  0  0
  2  3  1  0  0  0  0
  3  4  2  0  0  0  0
  3  5  1  0  0  0  0
  5  6  1  0  0  0  0
  6  7  2  0  0  0  0
  7  8  1  0  0  0  0
  8  9  1  0  0  0  0
  9 10  2  0  0  0  0
  6 10  1  0  0  0  0
 10 11  1  0  0  0  0
 11 12  1  0  0  0  0
 12 13  2  0  0  0  0
 12 14  1  0  0  0  0
 14 15  1  0  0  0  0
 15 16  1  0  0  0  0
 16 17  1  0  0  0  0
 17 18  1  0  0  0  0
 18 19  2  0  0  0  0
 19 20  1  0  0  0  0
 20 21  2  0  0  0  0
 21 22  1  0  0  0  0
 18 22  1  0  0  0  0
 15 23  1  0  0  0  0
 23 24  2  0  0  0  0
 23 25  1  0  0  0  0
 25 26  1  0  0  0  0
 26 27  1  0  0  0  0
 27 28  1  0  0  0  0
 28 29  1  0  0  0  0
 29 30  2  0  0  0  0
 30 31  1  0  0  0  0
 31 32  2  0  0  0  0
 32 33  1  0  0  0  0
 33 34  2  0  0  0  0
 29 34  1  0  0  0  0
M  END
> <ID>
CPD_700

$$$$
CPD_705
  Mrv1822 09091914012D          

 28 31  0  0  0  0            999 V2000
   -3.4105   -2.4454    0.0000 Cl  0  0  0  0  0  0  0  0  0  0  0  0
   -2.5855   -2.4454    0.0000 C   0  0  0  0  0  0  0  0  0  0  0  0
   -2.1730   -1.7309    0.0000 C   0  0  0  0  0  0  0  0  0  0  0  0
   -1.3480   -1.7309    0.0000 C   0  0  0  0  0  0  0  0  0  0  0  0
   -0.9355   -2.4454    0.0000 C   0  0  0  0  0  0  0  0  0  0  0  0
   -1.3480   -3.1599    0.0000 C   0  0  0  0  0  0  0  0  0  0  0  0
   -2.1730   -3.1599    0.0000 C   0  0  0  0  0  0  0  0  0  0  0  0
   -0.9355   -1.0164    0.0000 C   0  0  0  0  0  0  0  0  0  0  0  0
   -1.3480   -0.3020    0.0000 O   0  0  0  0  0  0  0  0  0  0  0  0
   -0.1105   -1.0164    0.0000 N   0  0  0  0  0  0  0  0  0  0  0  0
    0.3020   -0.3020    0.0000 C   0  0  0  0  0  0  0  0  0  0  0  0
   -0.1105    0.4125    0.0000 C   0  0  0  0  0  0  0  0  0  0  0  0
    0.3020    1.1270    0.0000 C   0  0  0  0  0  0  0  0  0  0  0  0
    1.1270    1.1270    0.0000 O   0  0  0  0  0  0  0  0  0  0  0  0
    1.5395    0.4125    0.0000 C   0  0  0  0  0  0  0  0  0  0  0  0
    1.9520    1.1270    0.0000 C   0  0  0  0  0  0  0  0  0  0  0  0
    2.7770    1.1270    0.0000 C   0  0  0  0  0  0  0  0  0  0  0  0
    3.1895    0.4125    0.0000 N   0  0  0  0  0  0  0  0  0  0  0  0
    4.0145    0.4125    0.0000 C   0  0  0  0  0  0  0  0  0  0  0  0
    4.4270   -0.3020    0.0000 C   0  0  0  0  0  0  0  0  0  0  0  0
    5.2520   -0.3020    0.0000 C   0  0  0  0  0  0  0  0  0  0  0  0
    5.6645   -1.0164    0.0000 C   0  0  0  0  0  0  0  0  0  0  0  0
    5.2520   -1.7309    0.0000 C   0  0  0  0  0  0  0  0  0  0  0  0
    4.4270   -1.7309    0.0000 C   0  0  0  0  0  0  0  0  0  0  0  0
    4.0145   -1.0164    0.0000 C   0  0  0  0  0  0  0  0  0  0  0  0
    2.7770   -0.3020    0.0000 C   0  0  0  0  0  0  0  0  0  0  0  0
    1.9520   -0.3020    0.0000 C   0  0  0  0  0  0  0  0  0  0  0  0
    1.1270   -0.3020    0.0000 C   0  0  0  0  0  0  0  0  0  0  0  0
  1  2  1  0  0  0  0
  2  3  2  0  0  0  0
  3  4  1  0  0  0  0
  4  5  2  0  0  0  0
  5  6  1  0  0  0  0
  6  7  2  0  0  0  0
  2  7  1  0  0  0  0
  4  8  1  0  0  0  0
  8  9  2  0  0  0  0
  8 10  1  0  0  0  0
 10 11  1  0  0  0  0
 11 12  1  0  0  0  0
 12 13  1  0  0  0  0
 13 14  1  0  0  0  0
 14 15  1  0  0  0  0
 15 16  1  0  0  0  0
 16 17  1  0  0  0  0
 17 18  1  0  0  0  0
 18 19  1  0  0  0  0
 19 20  1  0  0  0  0
 20 21  2  0  0  0  0
 21 22  1  0  0  0  0
 22 23  2  0  0  0  0
 23 24  1  0  0  0  0
 24 25  2  0  0  0  0
 20 25  1  0  0  0  0
 18 26  1  0  0  0  0
 26 27  1  0  0  0  0
 15 27  1  0  0  0  0
 15 28  1  0  0  0  0
 11 28  1  0  0  0  0
M  END
> <ID>
CPD_705

$$$$
CPD_710
  Mrv1822 09091914012D          

 36 40  0  0  0  0            999 V2000
   -4.6480   -3.1599    0.0000 C   0  0  0  0  0  0  0  0  0  0  0  0
   -3.8230   -3.1599    0.0000 C   0  0  0  0  0  0  0  0  0  0  0  0
   -3.4105   -2.4454    0.0000 O   0  0  0  0  0  0  0  0  0  0  0  0
   -2.5855   -2.4454    0.0000 C   0  0  0  0  0  0  0  0  0  0  0  0
   -2.1730   -1.7309    0.0000 C   0  0  0  0  0  0  0  0  0  0  0  0
   -1.3480   -1.7309    0.0000 C   0  0  0  0  0  0  0  0  0  0  0  0
   -0.9355   -2.4454    0.0000 N   0  0  0  0  0  0  0  0  0  0  0  0
   -1.3480   -3.1599    0.0000 C   0  0  0  0  0  0  0  0  0  0  0  0
   -0.9355   -3.8743    0.0000 C   0  0  0  0  0  0  0  0  0  0  0  0
   -0.1105   -3.8743    0.0000 C   0  0  0  0  0  0  0  0  0  0  0  0
   -1.3480   -4.5888    0.0000 C   0  0  0  0  0  0  0  0  0  0  0  0
   -2.1730   -4.5888    0.0000 C   0  0  0  0  0  0  0  0  0  0  0  0
   -2.5855   -5.3033    0.0000 F   0  0  0  0  0  0  0  0  0  0  0  0
   -2.5855   -3.8743    0.0000 C   0  0  0  0  0  0  0  0  0  0  0  0
   -2.1730   -3.1599    0.0000 C   0  0  0  0  0  0  0  0  0  0  0  0
   -0.9355   -1.0164    0.0000 C   0  0  0  0  0  0  0  0  0  0  0  0
   -1.3480   -0.3020    0.0000 O   0  0  0  0  0  0  0  0  0  0  0  0
   -0.1105   -1.0164    0.0000 N   0  0  0  0  0  0  0  0  0  0  0  0
    0.3020   -0.3020    0.0000 C   0  0  0  0  0  0  0  0  0  0  0  0
   -0.1105    0.4125    0.0000 C   0  0  0  0  0  0  0  0  0  0  0  0
    0.3020    1.1270    0.0000 C   0  0  0  0  0  0  0  0  0  0  0  0
    1.1270    1.1270    0.0000 O   0  0  0  0  0  0  0  0  0  0  0  0
    1.5395    0.4125    0.0000 C   0  0  0  0  0  0  0  0  0  0  0  0
    1.9520    1.1270    0.0000 C   0  0  0  0  0  0  0  0  0  0  0  0
    2.7770    1.1270    0.0000 C   0  0  0  0  0  0  0  0  0  0  0  0
    3.1895    0.4125    0.0000 N   0  0  0  0  0  0  0  0  0  0  0  0
    4.0145    0.4125    0.0000 C   0  0  0  0  0  0  0  0  0  0  0  0
    4.4270   -0.3020    0.0000 C   0  0  0  0  0  0  0  0  0  0  0  0
    5.2520   -0.3020    0.0000 C   0  0  0  0  0  0  0  0  0  0  0  0
    5.6645   -1.0164    0.0000 C   0  0  0  0  0  0  0  0  0  0  0  0
    5.2520   -1.7309    0.0000 C   0  0  0  0  0  0  0  0  0  0  0  0
    4.4270   -1.7309    0.0000 C   0  0  0  0  0  0  0  0  0  0  0  0
    4.0145   -1.0164    0.0000 C   0  0  0  0  0  0  0  0  0  0  0  0
    2.7770   -0.3020    0.0000 C   0  0  0  0  0  0  0  0  0  0  0  0
    1.9520   -0.3020    0.0000 C   0  0  0  0  0  0  0  0  0  0  0  0
    1.1270   -0.3020    0.0000 C   0  0  0  0  0  0  0  0  0  0  0  0
  1  2  1  0  0  0  0
  2  3  1  0  0  0  0
  3  4  1  0  0  0  0
  4  5  2  0  0  0  0
  5  6  1  0  0  0  0
  6  7  2  0  0  0  0
  7  8  1  0  0  0  0
  8  9  2  0  0  0  0
  9 10  1  0  0  0  0
  9 11  1  0  0  0  0
 11 12  2  0  0  0  0
 12 13  1  0  0  0  0
 12 14  1  0  0  0  0
 14 15  2  0  0  0  0
  4 15  1  0  0  0  0
  8 15  1  0  0  0  0
  6 16  1  0  0  0  0
 16 17  2  0  0  0  0
 16 18  1  0  0  0  0
 18 19  1  0  0  0  0
 19 20  1  0  0  0  0
 20 21  1  0  0  0  0
 21 22  1  0  0  0  0
 22 23  1  0  0  0  0
 23 24  1  0  0  0  0
 24 25  1  0  0  0  0
 25 26  1  0  0  0  0
 26 27  1  0  0  0  0
 27 28  1  0  0  0  0
 28 29  2  0  0  0  0
 29 30  1  0  0  0  0
 30 31  2  0  0  0  0
 31 32  1  0  0  0  0
 32 33  2  0  0  0  0
 28 33  1  0  0  0  0
 26 34  1  0  0  0  0
 34 35  1  0  0  0  0
 23 35  1  0  0  0  0
 23 36  1  0  0  0  0
 19 36  1  0  0  0  0
M  END
> <ID>
CPD_710

$$$$
CPD_715
  Mrv1822 09091914012D          

 25 28  0  0  1  0            999 V2000
    0.1536    1.3672    0.0000 C   0  0  0  0  0  0  0  0  0  0  0  0
   -0.3984    0.7541    0.0000 C   0  0  0  0  0  0  0  0  0  0  0  0
   -0.1435   -0.0305    0.0000 N   0  0  0  0  0  0  0  0  0  0  0  0
   -0.6284   -0.6979    0.0000 C   0  0  0  0  0  0  0  0  0  0  0  0
   -0.1435   -1.3654    0.0000 N   0  0  0  0  0  0  0  0  0  0  0  0
    0.6411   -1.1104    0.0000 C   0  0  0  0  0  0  0  0  0  0  0  0
    0.6411   -0.2854    0.0000 C   0  0  0  0  0  0  0  0  0  0  0  0
    1.3556    0.1271    0.0000 C   0  0  0  0  0  0  0  0  0  0  0  0
    2.0701   -0.2854    0.0000 C   0  0  0  0  0  0  0  0  0  0  0  0
    2.0701   -1.1104    0.0000 C   0  0  0  0  0  0  0  0  0  0  0  0
    1.3556   -1.5229    0.0000 C   0  0  0  0  0  0  0  0  0  0  0  0
   -1.4534   -0.6979    0.0000 C   0  0  0  0  0  0  0  0  0  0  0  0
   -1.9384   -1.3654    0.0000 C   0  0  0  0  0  0  0  0  0  0  0  0
   -2.7230   -1.1104    0.0000 C   0  0  0  0  0  0  0  0  0  0  0  0
   -2.7230   -0.2854    0.0000 C   0  0  0  0  0  0  0  0  0  0  0  0
   -1.9384   -0.0305    0.0000 N   0  0  0  0  0  0  0  0  0  0  0  0
   -1.6834    0.7541    0.0000 C   0  0  0  0  0  0  0  0  0  0  0  0
   -0.8764    0.9256    0.0000 O   0  0  0  0  0  0  0  0  0  0  0  0
   -2.2354    1.3672    0.0000 C   0  0  2  0  0  0  0  0  0  0  0  0
   -3.0424    1.1957    0.0000 N   0  0  0  0  0  0  0  0  0  0  0  0
   -1.9805    2.1518    0.0000 C   0  0  0  0  0  0  0  0  0  0  0  0
   -2.4654    2.8193    0.0000 C   0  0  0  0  0  0  0  0  0  0  0  0
   -1.9805    3.4867    0.0000 C   0  0  0  0  0  0  0  0  0  0  0  0
   -1.1959    3.2318    0.0000 C   0  0  0  0  0  0  0  0  0  0  0  0
   -1.1959    2.4068    0.0000 S   0  0  0  0  0  0  0  0  0  0  0  0
  1  2  1  0  0  0  0
  2  3  1  0  0  0  0
  3  4  1  0  0  0  0
  4  5  2  0  0  0  0
  5  6  1  0  0  0  0
  6  7  2  0  0  0  0
  3  7  1  0  0  0  0
  7  8  1  0  0  0  0
  8  9  2  0  0  0  0
  9 10  1  0  0  0  0
 10 11  2  0  0  0  0
  6 11  1  0  0  0  0
  4 12  1  0  0  0  0
 12 13  1  0  0  0  0
 13 14  1  0  0  0  0
 14 15  1  0  0  0  0
 15 16  1  0  0  0  0
 12 16  1  0  0  0  0
 16 17  1  0  0  0  0
 17 18  2  0  0  0  0
 19 17  1  0  0  0  0
 19 20  1  6  0  0  0
 19 21  1  0  0  0  0
 21 22  2  0  0  0  0
 22 23  1  0  0  0  0
 23 24  2  0  0  0  0
 24 25  1  0  0  0  0
 21 25  1  0  0  0  0
M  END
> <ID>
CPD_715

$$$$
CPD_720
  Mrv1822 09091914012D          

 29 33  0  0  0  0            999 V2000
    0.1536    1.3672    0.0000 C   0  0  0  0  0  0  0  0  0  0  0  0
   -0.3984    0.7541    0.0000 C   0  0  0  0  0  0  0  0  0  0  0  0
   -0.1435   -0.0305    0.0000 N   0  0  0  0  0  0  0  0  0  0  0  0
   -0.6284   -0.6979    0.0000 C   0  0  0  0  0  0  0  0  0  0  0  0
   -0.1435   -1.3654    0.0000 N   0  0  0  0  0  0  0  0  0  0  0  0
    0.6411   -1.1104    0.0000 C   0  0  0  0  0  0  0  0  0  0  0  0
    0.6411   -0.2854    0.0000 C   0  0  0  0  0  0  0  0  0  0  0  0
    1.3556    0.1271    0.0000 C   0  0  0  0  0  0  0  0  0  0  0  0
    2.0701   -0.2854    0.0000 C   0  0  0  0  0  0  0  0  0  0  0  0
    2.0701   -1.1104    0.0000 C   0  0  0  0  0  0  0  0  0  0  0  0
    1.3556   -1.5229    0.0000 C   0  0  0  0  0  0  0  0  0  0  0  0
   -1.4534   -0.6979    0.0000 C   0  0  0  0  0  0  0  0  0  0  0  0
   -1.9384   -1.3654    0.0000 C   0  0  0  0  0  0  0  0  0  0  0  0
   -2.7230   -1.1104    0.0000 C   0  0  0  0  0  0  0  0  0  0  0  0
   -2.7230   -0.2854    0.0000 C   0  0  0  0  0  0  0  0  0  0  0  0
   -1.9384   -0.0305    0.0000 N   0  0  0  0  0  0  0  0  0  0  0  0
   -1.6834    0.7541    0.0000 C   0  0  0  0  0  0  0  0  0  0  0  0
   -0.8764    0.9256    0.0000 O   0  0  0  0  0  0  0  0  0  0  0  0
   -2.2354    1.3672    0.0000 C   0  0  0  0  0  0  0  0  0  0  0  0
   -2.5445    2.1321    0.0000 C   0  0  0  0  0  0  0  0  0  0  0  0
   -3.3615    2.2470    0.0000 C   0  0  0  0  0  0  0  0  0  0  0  0
   -3.8694    1.5968    0.0000 C   0  0  0  0  0  0  0  0  0  0  0  0
   -3.5603    0.8319    0.0000 C   0  0  0  0  0  0  0  0  0  0  0  0
   -2.7434    0.7171    0.0000 C   0  0  0  0  0  0  0  0  0  0  0  0
   -1.5358    1.8044    0.0000 N   0  0  0  0  0  0  0  0  0  0  0  0
   -1.4783    2.6274    0.0000 C   0  0  0  0  0  0  0  0  0  0  0  0
   -0.6778    2.8270    0.0000 C   0  0  0  0  0  0  0  0  0  0  0  0
   -0.2406    2.1273    0.0000 C   0  0  0  0  0  0  0  0  0  0  0  0
   -0.7709    1.4953    0.0000 C   0  0  0  0  0  0  0  0  0  0  0  0
  1  2  1  0  0  0  0
  2  3  1  0  0  0  0
  3  4  1  0  0  0  0
  4  5  2  0  0  0  0
  5  6  1  0  0  0  0
  6  7  2  0  0  0  0
  3  7  1  0  0  0  0
  7  8  1  0  0  0  0
  8  9  2  0  0  0  0
  9 10  1  0  0  0  0
 10 11  2  0  0  0  0
  6 11  1  0  0  0  0
  4 12  1  0  0  0  0
 12 13  1  0  0  0  0
 13 14  1  0  0  0  0
 14 15  1  0  0  0  0
 15 16  1  0  0  0  0
 12 16  1  0  0  0  0
 16 17  1  0  0  0  0
 17 18  2  0  0  0  0
 17 19  1  0  0  0  0
 19 20  1  0  0  0  0
 20 21  1  0  0  0  0
 21 22  1  0  0  0  0
 22 23  1  0  0  0  0
 23 24  1  0  0  0  0
 19 24  1  0  0  0  0
 19 25  1  0  0  0  0
 25 26  1  0  0  0  0
 26 27  2  0  0  0  0
 27 28  1  0  0  0  0
 28 29  2  0  0  0  0
 25 29  1  0  0  0  0
M  END
> <ID>
CPD_720

$$$$
CPD_725
  Mrv1822 09091914012D          

 29 32  0  0  1  0            999 V2000
    0.1536    1.3672    0.0000 C   0  0  0  0  0  0  0  0  0  0  0  0
   -0.3984    0.7541    0.0000 C   0  0  0  0  0  0  0  0  0  0  0  0
   -0.1435   -0.0305    0.0000 N   0  0  0  0  0  0  0  0  0  0  0  0
   -0.6284   -0.6979    0.0000 C   0  0  0  0  0  0  0  0  0  0  0  0
   -0.1435   -1.3654    0.0000 N   0  0  0  0  0  0  0  0  0  0  0  0
    0.6411   -1.1104    0.0000 C   0  0  0  0  0  0  0  0  0  0  0  0
    0.6411   -0.2854    0.0000 C   0  0  0  0  0  0  0  0  0  0  0  0
    1.3556    0.1271    0.0000 C   0  0  0  0  0  0  0  0  0  0  0  0
    2.0701   -0.2854    0.0000 C   0  0  0  0  0  0  0  0  0  0  0  0
    2.0701   -1.1104    0.0000 C   0  0  0  0  0  0  0  0  0  0  0  0
    1.3556   -1.5229    0.0000 C   0  0  0  0  0  0  0  0  0  0  0  0
   -1.4534   -0.6979    0.0000 C   0  0  0  0  0  0  0  0  0  0  0  0
   -1.9384   -1.3654    0.0000 C   0  0  0  0  0  0  0  0  0  0  0  0
   -2.7230   -1.1104    0.0000 C   0  0  0  0  0  0  0  0  0  0  0  0
   -2.7230   -0.2854    0.0000 C   0  0  0  0  0  0  0  0  0  0  0  0
   -1.9384   -0.0305    0.0000 N   0  0  0  0  0  0  0  0  0  0  0  0
   -1.6834    0.7541    0.0000 C   0  0  0  0  0  0  0  0  0  0  0  0
   -0.8764    0.9256    0.0000 O   0  0  0  0  0  0  0  0  0  0  0  0
   -2.2354    1.3672    0.0000 C   0  0  1  0  0  0  0  0  0  0  0  0
   -3.0424    1.1957    0.0000 N   0  0  0  0  0  0  0  0  0  0  0  0
   -1.9805    2.1518    0.0000 C   0  0  0  0  0  0  0  0  0  0  0  0
   -1.1735    2.3234    0.0000 C   0  0  0  0  0  0  0  0  0  0  0  0
   -0.9186    3.1080    0.0000 C   0  0  0  0  0  0  0  0  0  0  0  0
   -0.1116    3.2795    0.0000 C   0  0  0  0  0  0  0  0  0  0  0  0
    0.4404    2.6664    0.0000 C   0  0  0  0  0  0  0  0  0  0  0  0
    1.2474    2.8379    0.0000 O   0  0  0  0  0  0  0  0  0  0  0  0
    0.1855    1.8818    0.0000 C   0  0  0  0  0  0  0  0  0  0  0  0
    0.7375    1.2687    0.0000 N   0  0  0  0  0  0  0  0  0  0  0  0
   -0.6215    1.7103    0.0000 C   0  0  0  0  0  0  0  0  0  0  0  0
  1  2  1  0  0  0  0
  2  3  1  0  0  0  0
  3  4  1  0  0  0  0
  4  5  2  0  0  0  0
  5  6  1  0  0  0  0
  6  7  2  0  0  0  0
  3  7  1  0  0  0  0
  7  8  1  0  0  0  0
  8  9  2  0  0  0  0
  9 10  1  0  0  0  0
 10 11  2  0  0  0  0
  6 11  1  0  0  0  0
  4 12  1  0  0  0  0
 12 13  1  0  0  0  0
 13 14  1  0  0  0  0
 14 15  1  0  0  0  0
 15 16  1  0  0  0  0
 12 16  1  0  0  0  0
 16 17  1  0  0  0  0
 17 18  2  0  0  0  0
 19 17  1  0  0  0  0
 19 20  1  1  0  0  0
 19 21  1  0  0  0  0
 21 22  1  0  0  0  0
 22 23  2  0  0  0  0
 23 24  1  0  0  0  0
 24 25  2  0  0  0  0
 25 26  1  0  0  0  0
 25 27  1  0  0  0  0
 27 28  1  0  0  0  0
 27 29  2  0  0  0  0
 22 29  1  0  0  0  0
M  END
> <ID>
CPD_725

$$$$
CPD_730
  Mrv1822 09091914012D          

 33 36  0  0  0  0            999 V2000
   -4.2868    0.8250    0.0000 C   0  0  0  0  0  0  0  0  0  0  0  0
   -3.5724    1.2375    0.0000 C   0  0  0  0  0  0  0  0  0  0  0  0
   -2.8579    0.8250    0.0000 C   0  0  0  0  0  0  0  0  0  0  0  0
   -2.1434    1.2375    0.0000 C   0  0  0  0  0  0  0  0  0  0  0  0
   -1.4289    0.8250    0.0000 C   0  0  0  0  0  0  0  0  0  0  0  0
   -1.4289    0.0000    0.0000 C   0  0  0  0  0  0  0  0  0  0  0  0
   -2.1434   -0.4125    0.0000 C   0  0  0  0  0  0  0  0  0  0  0  0
   -2.8579    0.0000    0.0000 C   0  0  0  0  0  0  0  0  0  0  0  0
   -0.7145   -0.4125    0.0000 N   0  0  0  0  0  0  0  0  0  0  0  0
    0.0000    0.0000    0.0000 C   0  0  0  0  0  0  0  0  0  0  0  0
    0.0000    0.8250    0.0000 O   0  0  0  0  0  0  0  0  0  0  0  0
    0.7145   -0.4125    0.0000 C   0  0  0  0  0  0  0  0  0  0  0  0
    1.4289    0.0000    0.0000 C   0  0  0  0  0  0  0  0  0  0  0  0
    2.1434   -0.4125    0.0000 C   0  0  0  0  0  0  0  0  0  0  0  0
    2.8579    0.0000    0.0000 C   0  0  0  0  0  0  0  0  0  0  0  0
    3.5724   -0.4125    0.0000 C   0  0  0  0  0  0  0  0  0  0  0  0
    3.5724   -1.2375    0.0000 C   0  0  0  0  0  0  0  0  0  0  0  0
    4.2868   -1.6500    0.0000 C   0  0  0  0  0  0  0  0  0  0  0  0
    5.0013   -1.2375    0.0000 C   0  0  0  0  0  0  0  0  0  0  0  0
    2.8579   -1.6500    0.0000 C   0  0  0  0  0  0  0  0  0  0  0  0
    2.1434   -1.2375    0.0000 C   0  0  0  0  0  0  0  0  0  0  0  0
    1.4289   -1.6500    0.0000 N   0  0  0  0  0  0  0  0  0  0  0  0
    0.7145   -1.2375    0.0000 C   0  0  0  0  0  0  0  0  0  0  0  0
   -0.7145   -1.2375    0.0000 C   0  0  0  0  0  0  0  0  0  0  0  0
    0.0000   -1.6500    0.0000 N   0  0  0  0  0  0  0  0  0  0  0  0
    0.0000   -2.4750    0.0000 C   0  0  0  0  0  0  0  0  0  0  0  0
    0.7145   -2.8875    0.0000 C   0  0  0  0  0  0  0  0  0  0  0  0
   -0.7145   -2.8875    0.0000 C   0  0  0  0  0  0  0  0  0  0  0  0
   -0.7145   -3.7125    0.0000 C   0  0  0  0  0  0  0  0  0  0  0  0
   -1.4289   -4.1250    0.0000 C   0  0  0  0  0  0  0  0  0  0  0  0
   -1.4289   -2.4750    0.0000 C   0  0  0  0  0  0  0  0  0  0  0  0
   -2.1434   -2.8875    0.0000 O   0  0  0  0  0  0  0  0  0  0  0  0
   -1.4289   -1.6500    0.0000 N   0  0  0  0  0  0  0  0  0  0  0  0
  1  2  1  0  0  0  0
  2  3  1  0  0  0  0
  3  4  2  0  0  0  0
  4  5  1  0  0  0  0
  5  6  2  0  0  0  0
  6  7  1  0  0  0  0
  7  8  2  0  0  0  0
  3  8  1  0  0  0  0
  6  9  1  0  0  0  0
  9 10  1  0  0  0  0
 10 11  2  0  0  0  0
 10 12  1  0  0  0  0
 12 13  2  0  0  0  0
 13 14  1  0  0  0  0
 14 15  2  0  0  0  0
 15 16  1  0  0  0  0
 16 17  2  0  0  0  0
 17 18  1  0  0  0  0
 18 19  1  0  0  0  0
 17 20  1  0  0  0  0
 20 21  2  0  0  0  0
 14 21  1  0  0  0  0
 21 22  1  0  0  0  0
 22 23  2  0  0  0  0
 12 23  1  0  0  0  0
  9 24  1  0  0  0  0
 24 25  2  0  0  0  0
 25 26  1  0  0  0  0
 26 27  1  0  0  0  0
 26 28  2  0  0  0  0
 28 29  1  0  0  0  0
 29 30  1  0  0  0  0
 28 31  1  0  0  0  0
 31 32  2  0  0  0  0
 31 33  1  0  0  0  0
 24 33  1  0  0  0  0
M  END
> <ID>
CPD_730

$$$$
CPD_735
  Mrv1822 09091914012D          

 30 32  0  0  0  0            999 V2000
    1.4289    0.0000    0.0000 C   0  0  0  0  0  0  0  0  0  0  0  0
    2.1434   -0.4125    0.0000 C   0  0  0  0  0  0  0  0  0  0  0  0
    2.1434   -1.2375    0.0000 C   0  0  0  0  0  0  0  0  0  0  0  0
    2.8579   -1.6500    0.0000 C   0  0  0  0  0  0  0  0  0  0  0  0
    2.8579   -2.4750    0.0000 C   0  0  0  0  0  0  0  0  0  0  0  0
    2.1434   -2.8875    0.0000 C   0  0  0  0  0  0  0  0  0  0  0  0
    1.4289   -2.4750    0.0000 C   0  0  0  0  0  0  0  0  0  0  0  0
    1.4289   -1.6500    0.0000 C   0  0  0  0  0  0  0  0  0  0  0  0
    2.1434   -3.7125    0.0000 N   0  0  0  0  0  0  0  0  0  0  0  0
    2.8579   -4.1250    0.0000 C   0  0  0  0  0  0  0  0  0  0  0  0
    3.5724   -3.7125    0.0000 O   0  0  0  0  0  0  0  0  0  0  0  0
    2.8579   -4.9500    0.0000 C   0  0  0  0  0  0  0  0  0  0  0  0
    3.5724   -5.3625    0.0000 N   0  0  0  0  0  0  0  0  0  0  0  0
    3.5724   -6.1875    0.0000 C   0  0  0  0  0  0  0  0  0  0  0  0
    2.8579   -6.6000    0.0000 C   0  0  0  0  0  0  0  0  0  0  0  0
    2.1434   -6.1875    0.0000 C   0  0  0  0  0  0  0  0  0  0  0  0
    2.1434   -5.3625    0.0000 C   0  0  0  0  0  0  0  0  0  0  0  0
    2.8579   -7.4250    0.0000 C   0  0  0  0  0  0  0  0  0  0  0  0
    3.5724   -7.8375    0.0000 O   0  0  0  0  0  0  0  0  0  0  0  0
    2.1434   -7.8375    0.0000 O   0  0  0  0  0  0  0  0  0  0  0  0
    1.4289   -4.1250    0.0000 C   0  0  0  0  0  0  0  0  0  0  0  0
    1.4289   -4.9500    0.0000 N   0  0  0  0  0  0  0  0  0  0  0  0
    0.7145   -5.3625    0.0000 C   0  0  0  0  0  0  0  0  0  0  0  0
    0.7145   -6.1875    0.0000 C   0  0  0  0  0  0  0  0  0  0  0  0
   -0.0000   -4.9500    0.0000 C   0  0  0  0  0  0  0  0  0  0  0  0
   -0.7145   -5.3625    0.0000 C   0  0  0  0  0  0  0  0  0  0  0  0
   -1.4289   -4.9500    0.0000 C   0  0  0  0  0  0  0  0  0  0  0  0
   -0.0000   -4.1250    0.0000 C   0  0  0  0  0  0  0  0  0  0  0  0
   -0.7145   -3.7125    0.0000 O   0  0  0  0  0  0  0  0  0  0  0  0
    0.7145   -3.7125    0.0000 N   0  0  0  0  0  0  0  0  0  0  0  0
  1  2  1  0  0  0  0
  2  3  1  0  0  0  0
  3  4  2  0  0  0  0
  4  5  1  0  0  0  0
  5  6  2  0  0  0  0
  6  7  1  0  0  0  0
  7  8  2  0  0  0  0
  3  8  1  0  0  0  0
  6  9  1  0  0  0  0
  9 10  1  0  0  0  0
 10 11  2  0  0  0  0
 10 12  1  0  0  0  0
 12 13  2  0  0  0  0
 13 14  1  0  0  0  0
 14 15  2  0  0  0  0
 15 16  1  0  0  0  0
 16 17  2  0  0  0  0
 12 17  1  0  0  0  0
 15 18  1  0  0  0  0
 18 19  1  0  0  0  0
 18 20  2  0  0  0  0
  9 21  1  0  0  0  0
 21 22  2  0  0  0  0
 22 23  1  0  0  0  0
 23 24  1  0  0  0  0
 23 25  2  0  0  0  0
 25 26  1  0  0  0  0
 26 27  1  0  0  0  0
 25 28  1  0  0  0  0
 28 29  2  0  0  0  0
 28 30  1  0  0  0  0
 21 30  1  0  0  0  0
M  END
> <ID>
CPD_735

$$$$
CPD_740
  Mrv1822 09091914012D          

 24 25  0  0  0  0            999 V2000
   -2.1434   -1.2375    0.0000 C   0  0  0  0  0  0  0  0  0  0  0  0
   -1.4289   -1.6500    0.0000 C   0  0  0  0  0  0  0  0  0  0  0  0
   -0.7145   -1.2375    0.0000 C   0  0  0  0  0  0  0  0  0  0  0  0
    0.0000   -1.6500    0.0000 C   0  0  0  0  0  0  0  0  0  0  0  0
    0.0000   -2.4750    0.0000 O   0  0  0  0  0  0  0  0  0  0  0  0
    0.7145   -1.2375    0.0000 N   0  0  0  0  0  0  0  0  0  0  0  0
    1.4289   -1.6500    0.0000 C   0  0  0  0  0  0  0  0  0  0  0  0
    2.1434   -1.2375    0.0000 N   0  0  0  0  0  0  0  0  0  0  0  0
    2.8579   -1.6500    0.0000 C   0  0  0  0  0  0  0  0  0  0  0  0
    3.5724   -1.2375    0.0000 C   0  0  0  0  0  0  0  0  0  0  0  0
    2.8579   -2.4750    0.0000 C   0  0  0  0  0  0  0  0  0  0  0  0
    3.5724   -2.8875    0.0000 C   0  0  0  0  0  0  0  0  0  0  0  0
    3.5724   -3.7125    0.0000 C   0  0  0  0  0  0  0  0  0  0  0  0
    2.1434   -2.8875    0.0000 C   0  0  0  0  0  0  0  0  0  0  0  0
    2.1434   -3.7125    0.0000 O   0  0  0  0  0  0  0  0  0  0  0  0
    1.4289   -2.4750    0.0000 N   0  0  0  0  0  0  0  0  0  0  0  0
    0.7145   -0.4125    0.0000 C   0  0  0  0  0  0  0  0  0  0  0  0
    0.0000   -0.0000    0.0000 C   0  0  0  0  0  0  0  0  0  0  0  0
    0.0000    0.8250    0.0000 C   0  0  0  0  0  0  0  0  0  0  0  0
    0.7145    1.2375    0.0000 C   0  0  0  0  0  0  0  0  0  0  0  0
    0.7145    2.0625    0.0000 C   0  0  0  0  0  0  0  0  0  0  0  0
    0.0000    2.4750    0.0000 C   0  0  0  0  0  0  0  0  0  0  0  0
    1.4289    0.8250    0.0000 C   0  0  0  0  0  0  0  0  0  0  0  0
    1.4289   -0.0000    0.0000 C   0  0  0  0  0  0  0  0  0  0  0  0
  1  2  1  0  0  0  0
  2  3  1  0  0  0  0
  3  4  1  0  0  0  0
  4  5  2  0  0  0  0
  4  6  1  0  0  0  0
  6  7  1  0  0  0  0
  7  8  2  0  0  0  0
  8  9  1  0  0  0  0
  9 10  1  0  0  0  0
  9 11  2  0  0  0  0
 11 12  1  0  0  0  0
 12 13  1  0  0  0  0
 11 14  1  0  0  0  0
 14 15  2  0  0  0  0
 14 16  1  0  0  0  0
  7 16  1  0  0  0  0
  6 17  1  0  0  0  0
 17 18  2  0  0  0  0
 18 19  1  0  0  0  0
 19 20  2  0  0  0  0
 20 21  1  0  0  0  0
 21 22  1  0  0  0  0
 20 23  1  0  0  0  0
 23 24  2  0  0  0  0
 17 24  1  0  0  0  0
M  END
> <ID>
CPD_740

$$$$
CPD_745
  Mrv1822 09091914012D          

 24 26  0  0  0  0            999 V2000
   -4.2868    0.8250    0.0000 C   0  0  0  0  0  0  0  0  0  0  0  0
   -3.5724    1.2375    0.0000 C   0  0  0  0  0  0  0  0  0  0  0  0
   -3.5724    2.0625    0.0000 C   0  0  0  0  0  0  0  0  0  0  0  0
   -2.8579    0.8250    0.0000 C   0  0  0  0  0  0  0  0  0  0  0  0
   -2.1434    1.2375    0.0000 C   0  0  0  0  0  0  0  0  0  0  0  0
   -1.4289    0.8250    0.0000 C   0  0  0  0  0  0  0  0  0  0  0  0
   -1.4289    0.0000    0.0000 C   0  0  0  0  0  0  0  0  0  0  0  0
   -2.1434   -0.4125    0.0000 C   0  0  0  0  0  0  0  0  0  0  0  0
   -2.8579    0.0000    0.0000 C   0  0  0  0  0  0  0  0  0  0  0  0
   -0.7145   -0.4125    0.0000 C   0  0  0  0  0  0  0  0  0  0  0  0
   -0.7145   -1.2375    0.0000 C   0  0  0  0  0  0  0  0  0  0  0  0
    0.0000   -1.6500    0.0000 C   0  0  0  0  0  0  0  0  0  0  0  0
    0.0000   -2.4750    0.0000 O   0  0  0  0  0  0  0  0  0  0  0  0
    0.7145   -1.2375    0.0000 C   0  0  0  0  0  0  0  0  0  0  0  0
    0.7145   -0.4125    0.0000 C   0  0  0  0  0  0  0  0  0  0  0  0
    0.0000   -0.0000    0.0000 C   0  0  0  0  0  0  0  0  0  0  0  0
    1.4289   -0.0000    0.0000 N   0  0  0  0  0  0  0  0  0  0  0  0
    2.1434   -0.4125    0.0000 C   0  0  0  0  0  0  0  0  0  0  0  0
    2.8579   -0.0000    0.0000 N   0  0  0  0  0  0  0  0  0  0  0  0
    3.5724   -0.4125    0.0000 C   0  0  0  0  0  0  0  0  0  0  0  0
    4.2868   -0.0000    0.0000 C   0  0  0  0  0  0  0  0  0  0  0  0
    3.5724   -1.2375    0.0000 O   0  0  0  0  0  0  0  0  0  0  0  0
    2.1434   -1.2375    0.0000 N   0  0  0  0  0  0  0  0  0  0  0  0
    1.4289   -1.6500    0.0000 C   0  0  0  0  0  0  0  0  0  0  0  0
  1  2  1  0  0  0  0
  2  3  1  0  0  0  0
  2  4  1  0  0  0  0
  4  5  2  0  0  0  0
  5  6  1  0  0  0  0
  6  7  2  0  0  0  0
  7  8  1  0  0  0  0
  8  9  2  0  0  0  0
  4  9  1  0  0  0  0
  7 10  1  0  0  0  0
 10 11  1  0  0  0  0
 11 12  1  0  0  0  0
 12 13  2  0  0  0  0
 12 14  1  0  0  0  0
 14 15  2  0  0  0  0
 15 16  1  0  0  0  0
 10 16  1  0  0  0  0
 15 17  1  0  0  0  0
 17 18  2  0  0  0  0
 18 19  1  0  0  0  0
 19 20  1  0  0  0  0
 20 21  1  0  0  0  0
 20 22  2  0  0  0  0
 18 23  1  0  0  0  0
 23 24  2  0  0  0  0
 14 24  1  0  0  0  0
M  END
> <ID>
CPD_745

$$$$
CPD_750
  Mrv1822 09091914012D          

 30 33  0  0  0  0            999 V2000
   -4.2868    0.8250    0.0000 C   0  0  0  0  0  0  0  0  0  0  0  0
   -3.5724    1.2375    0.0000 C   0  0  0  0  0  0  0  0  0  0  0  0
   -3.5724    2.0625    0.0000 C   0  0  0  0  0  0  0  0  0  0  0  0
   -2.8579    0.8250    0.0000 C   0  0  0  0  0  0  0  0  0  0  0  0
   -2.1434    1.2375    0.0000 C   0  0  0  0  0  0  0  0  0  0  0  0
   -1.4289    0.8250    0.0000 C   0  0  0  0  0  0  0  0  0  0  0  0
   -1.4289    0.0000    0.0000 C   0  0  0  0  0  0  0  0  0  0  0  0
   -2.1434   -0.4125    0.0000 C   0  0  0  0  0  0  0  0  0  0  0  0
   -2.8579    0.0000    0.0000 C   0  0  0  0  0  0  0  0  0  0  0  0
   -0.7145   -0.4125    0.0000 C   0  0  0  0  0  0  0  0  0  0  0  0
   -0.7145   -1.2375    0.0000 C   0  0  0  0  0  0  0  0  0  0  0  0
    0.0000   -1.6500    0.0000 C   0  0  0  0  0  0  0  0  0  0  0  0
    0.0000   -2.4750    0.0000 O   0  0  0  0  0  0  0  0  0  0  0  0
    0.7145   -1.2375    0.0000 C   0  0  0  0  0  0  0  0  0  0  0  0
    0.7145   -0.4125    0.0000 C   0  0  0  0  0  0  0  0  0  0  0  0
    0.0000   -0.0000    0.0000 C   0  0  0  0  0  0  0  0  0  0  0  0
    1.4289   -0.0000    0.0000 N   0  0  0  0  0  0  0  0  0  0  0  0
    2.1434   -0.4125    0.0000 C   0  0  0  0  0  0  0  0  0  0  0  0
    2.8579   -0.0000    0.0000 N   0  0  0  0  0  0  0  0  0  0  0  0
    2.8579    0.8250    0.0000 C   0  0  0  0  0  0  0  0  0  0  0  0
    2.1434    1.2375    0.0000 O   0  0  0  0  0  0  0  0  0  0  0  0
    3.5724    1.2375    0.0000 C   0  0  0  0  0  0  0  0  0  0  0  0
    3.6586    2.0580    0.0000 N   0  0  0  0  0  0  0  0  0  0  0  0
    4.4656    2.2295    0.0000 N   0  0  0  0  0  0  0  0  0  0  0  0
    4.8011    2.9832    0.0000 C   0  0  0  0  0  0  0  0  0  0  0  0
    4.8781    1.5150    0.0000 C   0  0  0  0  0  0  0  0  0  0  0  0
    4.3260    0.9019    0.0000 C   0  0  0  0  0  0  0  0  0  0  0  0
    4.4976    0.0950    0.0000 C   0  0  0  0  0  0  0  0  0  0  0  0
    2.1434   -1.2375    0.0000 N   0  0  0  0  0  0  0  0  0  0  0  0
    1.4289   -1.6500    0.0000 C   0  0  0  0  0  0  0  0  0  0  0  0
  1  2  1  0  0  0  0
  2  3  1  0  0  0  0
  2  4  1  0  0  0  0
  4  5  2  0  0  0  0
  5  6  1  0  0  0  0
  6  7  2  0  0  0  0
  7  8  1  0  0  0  0
  8  9  2  0  0  0  0
  4  9  1  0  0  0  0
  7 10  1  0  0  0  0
 10 11  1  0  0  0  0
 11 12  1  0  0  0  0
 12 13  2  0  0  0  0
 12 14  1  0  0  0  0
 14 15  2  0  0  0  0
 15 16  1  0  0  0  0
 10 16  1  0  0  0  0
 15 17  1  0  0  0  0
 17 18  2  0  0  0  0
 18 19  1  0  0  0  0
 19 20  1  0  0  0  0
 20 21  2  0  0  0  0
 20 22  1  0  0  0  0
 22 23  2  0  0  0  0
 23 24  1  0  0  0  0
 24 25  1  0  0  0  0
 24 26  1  0  0  0  0
 26 27  2  0  0  0  0
 22 27  1  0  0  0  0
 27 28  1  0  0  0  0
 18 29  1  0  0  0  0
 29 30  2  0  0  0  0
 14 30  1  0  0  0  0
M  END
> <ID>
CPD_750

$$$$
CPD_755
  Mrv1822 09091914012D          

 37 41  0  0  0  0            999 V2000
    8.9947   11.9625    0.0000 C   0  0  0  0  0  0  0  0  0  0  0  0
    8.9947   11.1375    0.0000 C   0  0  0  0  0  0  0  0  0  0  0  0
    9.7092   10.7250    0.0000 C   0  0  0  0  0  0  0  0  0  0  0  0
    8.2802   10.7250    0.0000 C   0  0  0  0  0  0  0  0  0  0  0  0
    8.2802    9.9000    0.0000 C   0  0  0  0  0  0  0  0  0  0  0  0
    7.5658    9.4875    0.0000 C   0  0  0  0  0  0  0  0  0  0  0  0
    6.8513    9.9000    0.0000 C   0  0  0  0  0  0  0  0  0  0  0  0
    6.8513   10.7250    0.0000 C   0  0  0  0  0  0  0  0  0  0  0  0
    7.5658   11.1375    0.0000 C   0  0  0  0  0  0  0  0  0  0  0  0
    6.1368    9.4875    0.0000 C   0  0  0  0  0  0  0  0  0  0  0  0
    5.4223    9.9000    0.0000 C   0  0  0  0  0  0  0  0  0  0  0  0
    4.7079    9.4875    0.0000 C   0  0  0  0  0  0  0  0  0  0  0  0
    3.9934    9.9000    0.0000 O   0  0  0  0  0  0  0  0  0  0  0  0
    4.7079    8.6625    0.0000 C   0  0  0  0  0  0  0  0  0  0  0  0
    5.4223    8.2500    0.0000 C   0  0  0  0  0  0  0  0  0  0  0  0
    6.1368    8.6625    0.0000 C   0  0  0  0  0  0  0  0  0  0  0  0
    5.4223    7.4250    0.0000 N   0  0  0  0  0  0  0  0  0  0  0  0
    4.7079    7.0125    0.0000 C   0  0  0  0  0  0  0  0  0  0  0  0
    4.7079    6.1875    0.0000 N   0  0  0  0  0  0  0  0  0  0  0  0
    3.9934    5.7750    0.0000 C   0  0  0  0  0  0  0  0  0  0  0  0
    3.2789    6.1875    0.0000 O   0  0  0  0  0  0  0  0  0  0  0  0
    3.9934    4.9500    0.0000 C   0  0  0  0  0  0  0  0  0  0  0  0
    4.7079    4.5375    0.0000 C   0  0  0  0  0  0  0  0  0  0  0  0
    4.7079    3.7125    0.0000 C   0  0  0  0  0  0  0  0  0  0  0  0
    5.4223    3.3000    0.0000 O   0  0  0  0  0  0  0  0  0  0  0  0
    3.9934    3.3000    0.0000 N   0  0  0  0  0  0  0  0  0  0  0  0
    3.2789    3.7125    0.0000 C   0  0  0  0  0  0  0  0  0  0  0  0
    2.4943    3.4576    0.0000 N   0  0  0  0  0  0  0  0  0  0  0  0
    2.0094    4.1250    0.0000 N   0  0  0  0  0  0  0  0  0  0  0  0
    1.1844    4.1250    0.0000 C   0  0  0  0  0  0  0  0  0  0  0  0
    0.7719    4.8395    0.0000 C   0  0  0  0  0  0  0  0  0  0  0  0
   -0.0531    4.8395    0.0000 F   0  0  0  0  0  0  0  0  0  0  0  0
    1.1844    5.5539    0.0000 F   0  0  0  0  0  0  0  0  0  0  0  0
    2.4943    4.7924    0.0000 C   0  0  0  0  0  0  0  0  0  0  0  0
    3.2789    4.5375    0.0000 C   0  0  0  0  0  0  0  0  0  0  0  0
    3.9934    7.4250    0.0000 N   0  0  0  0  0  0  0  0  0  0  0  0
    3.9934    8.2500    0.0000 C   0  0  0  0  0  0  0  0  0  0  0  0
  1  2  1  0  0  0  0
  2  3  1  0  0  0  0
  2  4  1  0  0  0  0
  4  5  2  0  0  0  0
  5  6  1  0  0  0  0
  6  7  2  0  0  0  0
  7  8  1  0  0  0  0
  8  9  2  0  0  0  0
  4  9  1  0  0  0  0
  7 10  1  0  0  0  0
 10 11  1  0  0  0  0
 11 12  1  0  0  0  0
 12 13  2  0  0  0  0
 12 14  1  0  0  0  0
 14 15  2  0  0  0  0
 15 16  1  0  0  0  0
 10 16  1  0  0  0  0
 15 17  1  0  0  0  0
 17 18  2  0  0  0  0
 18 19  1  0  0  0  0
 19 20  1  0  0  0  0
 20 21  2  0  0  0  0
 20 22  1  0  0  0  0
 22 23  2  0  0  0  0
 23 24  1  0  0  0  0
 24 25  2  0  0  0  0
 24 26  1  0  0  0  0
 26 27  1  0  0  0  0
 27 28  2  0  0  0  0
 28 29  1  0  0  0  0
 29 30  1  0  0  0  0
 30 31  1  0  0  0  0
 31 32  1  0  0  0  0
 31 33  1  0  0  0  0
 29 34  1  0  0  0  0
 34 35  2  0  0  0  0
 22 35  1  0  0  0  0
 27 35  1  0  0  0  0
 18 36  1  0  0  0  0
 36 37  2  0  0  0  0
 14 37  1  0  0  0  0
M  END
> <ID>
CPD_755

$$$$
CPD_760
  Mrv1822 09091914012D          

 26 29  0  0  0  0            999 V2000
   -4.3409   -2.8414    0.0000 N   0  0  0  0  0  0  0  0  0  0  0  0
   -3.9284   -2.1269    0.0000 C   0  0  0  0  0  0  0  0  0  0  0  0
   -4.3409   -1.4124    0.0000 C   0  0  0  0  0  0  0  0  0  0  0  0
   -3.9284   -0.6979    0.0000 C   0  0  0  0  0  0  0  0  0  0  0  0
   -4.3409    0.0165    0.0000 O   0  0  0  0  0  0  0  0  0  0  0  0
   -3.1034   -0.6979    0.0000 N   0  0  0  0  0  0  0  0  0  0  0  0
   -2.6909   -1.4124    0.0000 C   0  0  0  0  0  0  0  0  0  0  0  0
   -3.1034   -2.1269    0.0000 N   0  0  0  0  0  0  0  0  0  0  0  0
   -1.8659   -1.4124    0.0000 N   0  0  0  0  0  0  0  0  0  0  0  0
   -1.4534   -2.1269    0.0000 C   0  0  0  0  0  0  0  0  0  0  0  0
   -0.6284   -2.1269    0.0000 C   0  0  0  0  0  0  0  0  0  0  0  0
   -0.2159   -2.8414    0.0000 C   0  0  0  0  0  0  0  0  0  0  0  0
   -0.6284   -3.5558    0.0000 C   0  0  0  0  0  0  0  0  0  0  0  0
   -1.4534   -3.5558    0.0000 C   0  0  0  0  0  0  0  0  0  0  0  0
   -1.8659   -2.8414    0.0000 C   0  0  0  0  0  0  0  0  0  0  0  0
   -1.4534   -0.6979    0.0000 C   0  0  0  0  0  0  0  0  0  0  0  0
   -1.8659    0.0165    0.0000 O   0  0  0  0  0  0  0  0  0  0  0  0
   -0.6284   -0.6979    0.0000 C   0  0  0  0  0  0  0  0  0  0  0  0
   -0.1435   -1.3654    0.0000 C   0  0  0  0  0  0  0  0  0  0  0  0
    0.6411   -1.1104    0.0000 C   0  0  0  0  0  0  0  0  0  0  0  0
    0.6411   -0.2854    0.0000 C   0  0  0  0  0  0  0  0  0  0  0  0
   -0.1435   -0.0305    0.0000 C   0  0  0  0  0  0  0  0  0  0  0  0
    1.3556    0.1271    0.0000 C   0  0  0  0  0  0  0  0  0  0  0  0
    2.0701   -0.2854    0.0000 C   0  0  0  0  0  0  0  0  0  0  0  0
    2.0701   -1.1104    0.0000 C   0  0  0  0  0  0  0  0  0  0  0  0
    1.3556   -1.5229    0.0000 C   0  0  0  0  0  0  0  0  0  0  0  0
  1  2  1  0  0  0  0
  2  3  2  0  0  0  0
  3  4  1  0  0  0  0
  4  5  2  0  0  0  0
  4  6  1  0  0  0  0
  6  7  1  0  0  0  0
  7  8  2  0  0  0  0
  2  8  1  0  0  0  0
  7  9  1  0  0  0  0
  9 10  1  0  0  0  0
 10 11  1  0  0  0  0
 11 12  1  0  0  0  0
 12 13  1  0  0  0  0
 13 14  1  0  0  0  0
 14 15  1  0  0  0  0
 10 15  1  0  0  0  0
  9 16  1  0  0  0  0
 16 17  2  0  0  0  0
 16 18  1  0  0  0  0
 18 19  2  0  0  0  0
 19 20  1  0  0  0  0
 20 21  2  0  0  0  0
 21 22  1  0  0  0  0
 18 22  1  0  0  0  0
 21 23  1  0  0  0  0
 23 24  2  0  0  0  0
 24 25  1  0  0  0  0
 25 26  2  0  0  0  0
 20 26  1  0  0  0  0
M  END
> <ID>
CPD_760

$$$$
CPD_765
  Mrv1822 09091914012D          

 28 31  0  0  0  0            999 V2000
    0.0000    0.8250    0.0000 O   0  0  0  0  0  0  0  0  0  0  0  0
    0.7145    1.2375    0.0000 C   0  0  0  0  0  0  0  0  0  0  0  0
    1.4289    0.8250    0.0000 C   0  0  0  0  0  0  0  0  0  0  0  0
    1.4289    0.0000    0.0000 C   0  0  0  0  0  0  0  0  0  0  0  0
    2.1434   -0.4125    0.0000 C   0  0  0  0  0  0  0  0  0  0  0  0
    2.8579    0.0000    0.0000 C   0  0  0  0  0  0  0  0  0  0  0  0
    3.5724   -0.4125    0.0000 C   0  0  0  0  0  0  0  0  0  0  0  0
    3.5724   -1.2375    0.0000 C   0  0  0  0  0  0  0  0  0  0  0  0
    2.8579   -1.6500    0.0000 C   0  0  0  0  0  0  0  0  0  0  0  0
    2.1434   -1.2375    0.0000 C   0  0  0  0  0  0  0  0  0  0  0  0
    1.4289   -1.6500    0.0000 C   0  0  0  0  0  0  0  0  0  0  0  0
    0.7145   -1.2375    0.0000 C   0  0  0  0  0  0  0  0  0  0  0  0
    0.7145   -0.4125    0.0000 C   0  0  0  0  0  0  0  0  0  0  0  0
    0.7145    2.0625    0.0000 N   0  0  0  0  0  0  0  0  0  0  0  0
    0.0000    2.4750    0.0000 C   0  0  0  0  0  0  0  0  0  0  0  0
   -0.7145    2.0625    0.0000 C   0  0  0  0  0  0  0  0  0  0  0  0
   -1.4289    2.4750    0.0000 C   0  0  0  0  0  0  0  0  0  0  0  0
   -2.1434    2.0625    0.0000 O   0  0  0  0  0  0  0  0  0  0  0  0
   -1.4289    3.3000    0.0000 N   0  0  0  0  0  0  0  0  0  0  0  0
   -0.7145    3.7125    0.0000 C   0  0  0  0  0  0  0  0  0  0  0  0
   -0.7145    4.5375    0.0000 N   0  0  0  0  0  0  0  0  0  0  0  0
    0.0000    4.9500    0.0000 C   0  0  0  0  0  0  0  0  0  0  0  0
    0.0000    5.7750    0.0000 C   0  0  0  0  0  0  0  0  0  0  0  0
    0.7145    6.1875    0.0000 C   0  0  0  0  0  0  0  0  0  0  0  0
    1.4289    5.7750    0.0000 C   0  0  0  0  0  0  0  0  0  0  0  0
    1.4289    4.9500    0.0000 C   0  0  0  0  0  0  0  0  0  0  0  0
    0.7145    4.5375    0.0000 C   0  0  0  0  0  0  0  0  0  0  0  0
    0.0000    3.3000    0.0000 N   0  0  0  0  0  0  0  0  0  0  0  0
  1  2  2  0  0  0  0
  2  3  1  0  0  0  0
  3  4  1  0  0  0  0
  4  5  2  0  0  0  0
  5  6  1  0  0  0  0
  6  7  2  0  0  0  0
  7  8  1  0  0  0  0
  8  9  2  0  0  0  0
  9 10  1  0  0  0  0
  5 10  1  0  0  0  0
 10 11  2  0  0  0  0
 11 12  1  0  0  0  0
 12 13  2  0  0  0  0
  4 13  1  0  0  0  0
  2 14  1  0  0  0  0
 14 15  1  0  0  0  0
 15 16  2  0  0  0  0
 16 17  1  0  0  0  0
 17 18  2  0  0  0  0
 17 19  1  0  0  0  0
 19 20  1  0  0  0  0
 20 21  1  0  0  0  0
 21 22  1  0  0  0  0
 22 23  1  0  0  0  0
 23 24  1  0  0  0  0
 24 25  1  0  0  0  0
 25 26  1  0  0  0  0
 26 27  1  0  0  0  0
 22 27  1  0  0  0  0
 20 28  2  0  0  0  0
 15 28  1  0  0  0  0
M  END
> <ID>
CPD_765

$$$$
CPD_770
  Mrv1822 09091914012D          

 27 29  0  0  0  0            999 V2000
   -2.1434   -2.8875    0.0000 C   0  0  0  0  0  0  0  0  0  0  0  0
   -2.1434   -3.7125    0.0000 C   0  0  0  0  0  0  0  0  0  0  0  0
   -2.8579   -4.1250    0.0000 O   0  0  0  0  0  0  0  0  0  0  0  0
   -1.4289   -4.1250    0.0000 O   0  0  0  0  0  0  0  0  0  0  0  0
   -1.4289   -4.9500    0.0000 C   0  0  0  0  0  0  0  0  0  0  0  0
   -0.7145   -5.3625    0.0000 C   0  0  0  0  0  0  0  0  0  0  0  0
   -0.7145   -6.1875    0.0000 C   0  0  0  0  0  0  0  0  0  0  0  0
   -1.4289   -6.6000    0.0000 C   0  0  0  0  0  0  0  0  0  0  0  0
   -2.1434   -6.1875    0.0000 C   0  0  0  0  0  0  0  0  0  0  0  0
   -2.1434   -5.3625    0.0000 C   0  0  0  0  0  0  0  0  0  0  0  0
    0.0000   -4.9500    0.0000 C   0  0  0  0  0  0  0  0  0  0  0  0
    0.0000   -4.1250    0.0000 O   0  0  0  0  0  0  0  0  0  0  0  0
    0.7145   -5.3625    0.0000 N   0  0  0  0  0  0  0  0  0  0  0  0
    1.4289   -4.9500    0.0000 C   0  0  0  0  0  0  0  0  0  0  0  0
    1.4289   -4.1250    0.0000 C   0  0  0  0  0  0  0  0  0  0  0  0
    2.1434   -3.7125    0.0000 C   0  0  0  0  0  0  0  0  0  0  0  0
    2.1434   -2.8875    0.0000 O   0  0  0  0  0  0  0  0  0  0  0  0
    2.8579   -4.1250    0.0000 N   0  0  0  0  0  0  0  0  0  0  0  0
    2.8579   -4.9500    0.0000 C   0  0  0  0  0  0  0  0  0  0  0  0
    3.5724   -5.3625    0.0000 N   0  0  0  0  0  0  0  0  0  0  0  0
    4.2868   -4.9500    0.0000 C   0  0  0  0  0  0  0  0  0  0  0  0
    4.2868   -4.1250    0.0000 C   0  0  0  0  0  0  0  0  0  0  0  0
    5.0013   -3.7125    0.0000 C   0  0  0  0  0  0  0  0  0  0  0  0
    5.7158   -4.1250    0.0000 C   0  0  0  0  0  0  0  0  0  0  0  0
    5.7158   -4.9500    0.0000 C   0  0  0  0  0  0  0  0  0  0  0  0
    5.0013   -5.3625    0.0000 C   0  0  0  0  0  0  0  0  0  0  0  0
    2.1434   -5.3625    0.0000 N   0  0  0  0  0  0  0  0  0  0  0  0
  1  2  1  0  0  0  0
  2  3  2  0  0  0  0
  2  4  1  0  0  0  0
  4  5  1  0  0  0  0
  5  6  2  0  0  0  0
  6  7  1  0  0  0  0
  7  8  2  0  0  0  0
  8  9  1  0  0  0  0
  9 10  2  0  0  0  0
  5 10  1  0  0  0  0
  6 11  1  0  0  0  0
 11 12  2  0  0  0  0
 11 13  1  0  0  0  0
 13 14  1  0  0  0  0
 14 15  2  0  0  0  0
 15 16  1  0  0  0  0
 16 17  2  0  0  0  0
 16 18  1  0  0  0  0
 18 19  1  0  0  0  0
 19 20  1  0  0  0  0
 20 21  1  0  0  0  0
 21 22  1  0  0  0  0
 22 23  1  0  0  0  0
 23 24  1  0  0  0  0
 24 25  1  0  0  0  0
 25 26  1  0  0  0  0
 21 26  1  0  0  0  0
 19 27  2  0  0  0  0
 14 27  1  0  0  0  0
M  END
> <ID>
CPD_770

$$$$
CPD_775
  Mrv1822 09091914012D          

 38 43  0  0  0  0            999 V2000
   -0.3984    0.7541    0.0000 C   0  0  0  0  0  0  0  0  0  0  0  0
   -0.1435   -0.0305    0.0000 N   0  0  0  0  0  0  0  0  0  0  0  0
   -0.6284   -0.6979    0.0000 N   0  0  0  0  0  0  0  0  0  0  0  0
   -0.1435   -1.3654    0.0000 C   0  0  0  0  0  0  0  0  0  0  0  0
   -0.3984   -2.1500    0.0000 C   0  0  0  0  0  0  0  0  0  0  0  0
    0.0865   -2.8174    0.0000 N   0  0  0  0  0  0  0  0  0  0  0  0
   -0.3984   -3.4849    0.0000 C   0  0  0  0  0  0  0  0  0  0  0  0
   -1.1831   -3.2299    0.0000 N   0  0  0  0  0  0  0  0  0  0  0  0
   -1.1831   -2.4049    0.0000 O   0  0  0  0  0  0  0  0  0  0  0  0
   -0.1435   -4.2695    0.0000 C   0  0  0  0  0  0  0  0  0  0  0  0
    0.6635   -4.4410    0.0000 C   0  0  0  0  0  0  0  0  0  0  0  0
    0.9184   -5.2257    0.0000 C   0  0  0  0  0  0  0  0  0  0  0  0
    1.7254   -5.3972    0.0000 F   0  0  0  0  0  0  0  0  0  0  0  0
    0.3664   -5.8387    0.0000 C   0  0  0  0  0  0  0  0  0  0  0  0
   -0.4406   -5.6672    0.0000 C   0  0  0  0  0  0  0  0  0  0  0  0
   -0.6955   -4.8826    0.0000 C   0  0  0  0  0  0  0  0  0  0  0  0
    0.6411   -1.1104    0.0000 C   0  0  0  0  0  0  0  0  0  0  0  0
    0.6411   -0.2854    0.0000 C   0  0  0  0  0  0  0  0  0  0  0  0
    1.3556    0.1271    0.0000 C   0  0  0  0  0  0  0  0  0  0  0  0
    2.0701   -0.2854    0.0000 C   0  0  0  0  0  0  0  0  0  0  0  0
    2.0701   -1.1104    0.0000 N   0  0  0  0  0  0  0  0  0  0  0  0
    1.3556   -1.5229    0.0000 C   0  0  0  0  0  0  0  0  0  0  0  0
    2.7845   -1.5229    0.0000 C   0  0  0  0  0  0  0  0  0  0  0  0
    3.4990   -1.1104    0.0000 O   0  0  0  0  0  0  0  0  0  0  0  0
    2.7845   -2.3479    0.0000 C   0  0  1  0  0  0  0  0  0  0  0  0
    3.4990   -2.7604    0.0000 C   0  0  0  0  0  0  0  0  0  0  0  0
    3.4990   -3.5854    0.0000 C   0  0  0  0  0  0  0  0  0  0  0  0
    2.7845   -3.9979    0.0000 C   0  0  2  0  0  0  0  0  0  0  0  0
    2.7845   -4.8229    0.0000 C   0  0  0  0  0  0  0  0  0  0  0  0
    3.4990   -5.2354    0.0000 N   0  0  0  0  0  0  0  0  0  0  0  0
    4.2527   -4.8999    0.0000 C   0  0  0  0  0  0  0  0  0  0  0  0
    4.4242   -4.0929    0.0000 O   0  0  0  0  0  0  0  0  0  0  0  0
    4.8047   -5.5130    0.0000 C   0  0  0  0  0  0  0  0  0  0  0  0
    4.3922   -6.2275    0.0000 C   0  0  0  0  0  0  0  0  0  0  0  0
    3.5852   -6.0559    0.0000 C   0  0  0  0  0  0  0  0  0  0  0  0
    2.9721   -6.6080    0.0000 O   0  0  0  0  0  0  0  0  0  0  0  0
    2.0701   -3.5854    0.0000 C   0  0  0  0  0  0  0  0  0  0  0  0
    2.0701   -2.7604    0.0000 C   0  0  0  0  0  0  0  0  0  0  0  0
  1  2  1  0  0  0  0
  2  3  1  0  0  0  0
  3  4  2  0  0  0  0
  4  5  1  0  0  0  0
  5  6  2  0  0  0  0
  6  7  1  0  0  0  0
  7  8  2  0  0  0  0
  8  9  1  0  0  0  0
  5  9  1  0  0  0  0
  7 10  1  0  0  0  0
 10 11  2  0  0  0  0
 11 12  1  0  0  0  0
 12 13  1  0  0  0  0
 12 14  2  0  0  0  0
 14 15  1  0  0  0  0
 15 16  2  0  0  0  0
 10 16  1  0  0  0  0
  4 17  1  0  0  0  0
 17 18  2  0  0  0  0
  2 18  1  0  0  0  0
 18 19  1  0  0  0  0
 19 20  1  0  0  0  0
 20 21  1  0  0  0  0
 21 22  1  0  0  0  0
 17 22  1  0  0  0  0
 21 23  1  0  0  0  0
 23 24  2  0  0  0  0
 25 23  1  1  0  0  0
 25 26  1  0  0  0  0
 26 27  1  0  0  0  0
 28 27  1  0  0  0  0
 28 29  1  6  0  0  0
 29 30  1  0  0  0  0
 30 31  1  0  0  0  0
 31 32  2  0  0  0  0
 31 33  1  0  0  0  0
 33 34  2  0  0  0  0
 34 35  1  0  0  0  0
 30 35  1  0  0  0  0
 35 36  2  0  0  0  0
 28 37  1  0  0  0  0
 37 38  1  0  0  0  0
 25 38  1  0  0  0  0
M  END
> <ID>
CPD_775

$$$$
CPD_780
  Mrv1822 09091914012D          

 34 38  0  0  0  0            999 V2000
    6.2102   -0.5396    0.0000 C   0  0  0  0  0  0  0  0  0  0  0  0
    5.4957   -0.1271    0.0000 O   0  0  0  0  0  0  0  0  0  0  0  0
    5.4957    0.6979    0.0000 C   0  0  0  0  0  0  0  0  0  0  0  0
    4.7812    1.1104    0.0000 C   0  0  0  0  0  0  0  0  0  0  0  0
    4.0668    0.6979    0.0000 F   0  0  0  0  0  0  0  0  0  0  0  0
    4.7812    1.9354    0.0000 C   0  0  0  0  0  0  0  0  0  0  0  0
    5.4957    2.3479    0.0000 C   0  0  0  0  0  0  0  0  0  0  0  0
    6.2102    1.9354    0.0000 C   0  0  0  0  0  0  0  0  0  0  0  0
    6.2102    1.1104    0.0000 C   0  0  0  0  0  0  0  0  0  0  0  0
    6.9246    0.6979    0.0000 Cl  0  0  0  0  0  0  0  0  0  0  0  0
    4.0668    2.3479    0.0000 C   0  0  0  0  0  0  0  0  0  0  0  0
    4.0668    3.1729    0.0000 O   0  0  0  0  0  0  0  0  0  0  0  0
    3.3523    1.9354    0.0000 N   0  0  0  0  0  0  0  0  0  0  0  0
    3.3523    1.1104    0.0000 C   0  0  0  0  0  0  0  0  0  0  0  0
    2.6378    0.6979    0.0000 C   0  0  0  0  0  0  0  0  0  0  0  0
    1.9233    1.1104    0.0000 C   0  0  0  0  0  0  0  0  0  0  0  0
    1.9233    1.9354    0.0000 C   0  0  0  0  0  0  0  0  0  0  0  0
    2.6378    2.3479    0.0000 C   0  0  0  0  0  0  0  0  0  0  0  0
    1.1387    2.1904    0.0000 C   0  0  0  0  0  0  0  0  0  0  0  0
    0.6538    1.5229    0.0000 N   0  0  0  0  0  0  0  0  0  0  0  0
    1.1387    0.8555    0.0000 N   0  0  0  0  0  0  0  0  0  0  0  0
    0.8838    0.0709    0.0000 C   0  0  0  0  0  0  0  0  0  0  0  0
    0.8838    2.9750    0.0000 C   0  0  0  0  0  0  0  0  0  0  0  0
    0.0992    3.2299    0.0000 N   0  0  0  0  0  0  0  0  0  0  0  0
    0.0992    4.0549    0.0000 C   0  0  0  0  0  0  0  0  0  0  0  0
    0.8838    4.3099    0.0000 N   0  0  0  0  0  0  0  0  0  0  0  0
    1.3687    3.6424    0.0000 O   0  0  0  0  0  0  0  0  0  0  0  0
   -0.5683    4.5399    0.0000 C   0  0  0  0  0  0  0  0  0  0  0  0
   -1.3220    4.2043    0.0000 C   0  0  0  0  0  0  0  0  0  0  0  0
   -1.9894    4.6892    0.0000 C   0  0  0  0  0  0  0  0  0  0  0  0
   -2.7431    4.3537    0.0000 F   0  0  0  0  0  0  0  0  0  0  0  0
   -1.9032    5.5097    0.0000 C   0  0  0  0  0  0  0  0  0  0  0  0
   -1.1495    5.8453    0.0000 C   0  0  0  0  0  0  0  0  0  0  0  0
   -0.4820    5.3603    0.0000 C   0  0  0  0  0  0  0  0  0  0  0  0
  1  2  1  0  0  0  0
  2  3  1  0  0  0  0
  3  4  2  0  0  0  0
  4  5  1  0  0  0  0
  4  6  1  0  0  0  0
  6  7  2  0  0  0  0
  7  8  1  0  0  0  0
  8  9  2  0  0  0  0
  3  9  1  0  0  0  0
  9 10  1  0  0  0  0
  6 11  1  0  0  0  0
 11 12  2  0  0  0  0
 11 13  1  0  0  0  0
 13 14  1  0  0  0  0
 14 15  1  0  0  0  0
 15 16  1  0  0  0  0
 16 17  2  0  0  0  0
 17 18  1  0  0  0  0
 13 18  1  0  0  0  0
 17 19  1  0  0  0  0
 19 20  2  0  0  0  0
 20 21  1  0  0  0  0
 16 21  1  0  0  0  0
 21 22  1  0  0  0  0
 19 23  1  0  0  0  0
 23 24  2  0  0  0  0
 24 25  1  0  0  0  0
 25 26  2  0  0  0  0
 26 27  1  0  0  0  0
 23 27  1  0  0  0  0
 25 28  1  0  0  0  0
 28 29  2  0  0  0  0
 29 30  1  0  0  0  0
 30 31  1  0  0  0  0
 30 32  2  0  0  0  0
 32 33  1  0  0  0  0
 33 34  2  0  0  0  0
 28 34  1  0  0  0  0
M  END
> <ID>
CPD_780

$$$$
CPD_785
  Mrv1822 09091914012D          

 25 27  0  0  0  0            999 V2000
    4.9151   -0.7488    0.0000 C   0  0  0  0  0  0  0  0  0  0  0  0
    4.1027   -0.6055    0.0000 C   0  0  0  0  0  0  0  0  0  0  0  0
    3.5724   -1.2375    0.0000 C   0  0  0  0  0  0  0  0  0  0  0  0
    3.0421   -0.6055    0.0000 C   0  0  0  0  0  0  0  0  0  0  0  0
    2.2296   -0.7488    0.0000 O   0  0  0  0  0  0  0  0  0  0  0  0
    4.2868   -1.6500    0.0000 C   0  0  0  0  0  0  0  0  0  0  0  0
    4.2868   -2.4750    0.0000 C   0  0  0  0  0  0  0  0  0  0  0  0
    3.5724   -2.8875    0.0000 N   0  0  0  0  0  0  0  0  0  0  0  0
    2.8579   -2.4750    0.0000 C   0  0  0  0  0  0  0  0  0  0  0  0
    2.8579   -1.6500    0.0000 C   0  0  0  0  0  0  0  0  0  0  0  0
    3.5724   -3.7125    0.0000 C   0  0  0  0  0  0  0  0  0  0  0  0
    2.8579   -4.1250    0.0000 O   0  0  0  0  0  0  0  0  0  0  0  0
    4.2868   -4.1250    0.0000 C   0  0  0  0  0  0  0  0  0  0  0  0
    5.0013   -3.7125    0.0000 C   0  0  0  0  0  0  0  0  0  0  0  0
    5.0013   -2.8875    0.0000 F   0  0  0  0  0  0  0  0  0  0  0  0
    5.7158   -4.1250    0.0000 C   0  0  0  0  0  0  0  0  0  0  0  0
    5.7158   -4.9500    0.0000 C   0  0  0  0  0  0  0  0  0  0  0  0
    5.0013   -5.3625    0.0000 C   0  0  0  0  0  0  0  0  0  0  0  0
    4.2868   -4.9500    0.0000 C   0  0  0  0  0  0  0  0  0  0  0  0
    3.5724   -5.3625    0.0000 C   0  0  0  0  0  0  0  0  0  0  0  0
    3.5724   -6.1875    0.0000 C   0  0  0  0  0  0  0  0  0  0  0  0
    2.8579   -6.6000    0.0000 C   0  0  0  0  0  0  0  0  0  0  0  0
    2.1434   -6.1875    0.0000 C   0  0  0  0  0  0  0  0  0  0  0  0
    2.1434   -5.3625    0.0000 C   0  0  0  0  0  0  0  0  0  0  0  0
    2.8579   -4.9500    0.0000 C   0  0  0  0  0  0  0  0  0  0  0  0
  1  2  1  0  0  0  0
  2  3  1  0  0  0  0
  3  4  1  0  0  0  0
  4  5  1  0  0  0  0
  3  6  1  0  0  0  0
  6  7  1  0  0  0  0
  7  8  1  0  0  0  0
  8  9  1  0  0  0  0
  9 10  1  0  0  0  0
  3 10  1  0  0  0  0
  8 11  1  0  0  0  0
 11 12  2  0  0  0  0
 11 13  1  0  0  0  0
 13 14  2  0  0  0  0
 14 15  1  0  0  0  0
 14 16  1  0  0  0  0
 16 17  2  0  0  0  0
 17 18  1  0  0  0  0
 18 19  2  0  0  0  0
 13 19  1  0  0  0  0
 19 20  1  0  0  0  0
 20 21  2  0  0  0  0
 21 22  1  0  0  0  0
 22 23  2  0  0  0  0
 23 24  1  0  0  0  0
 24 25  2  0  0  0  0
 20 25  1  0  0  0  0
M  END
> <ID>
CPD_785

$$$$
CPD_790
  Mrv1822 09091914012D          

 30 32  0  0  1  0            999 V2000
   -1.0409    0.0165    0.0000 H   0  0  0  0  0  0  0  0  0  0  0  0
   -1.4534   -0.6979    0.0000 C   0  0  2  0  0  0  0  0  0  0  0  0
   -1.8659    0.0165    0.0000 C   0  0  0  0  0  0  0  0  0  0  0  0
   -2.6909    0.0165    0.0000 C   0  0  0  0  0  0  0  0  0  0  0  0
   -1.4534    0.7310    0.0000 C   0  0  0  0  0  0  0  0  0  0  0  0
   -0.6284   -0.6979    0.0000 N   0  0  0  0  0  0  0  0  0  0  0  0
   -0.1435   -1.3654    0.0000 C   0  0  0  0  0  0  0  0  0  0  0  0
   -0.3984   -2.1500    0.0000 O   0  0  0  0  0  0  0  0  0  0  0  0
    0.6411   -1.1104    0.0000 C   0  0  0  0  0  0  0  0  0  0  0  0
    0.6411   -0.2854    0.0000 C   0  0  0  0  0  0  0  0  0  0  0  0
    1.3556    0.1271    0.0000 C   0  0  0  0  0  0  0  0  0  0  0  0
    2.0701   -0.2854    0.0000 C   0  0  0  0  0  0  0  0  0  0  0  0
    2.7845    0.1271    0.0000 Cl  0  0  0  0  0  0  0  0  0  0  0  0
    2.0701   -1.1104    0.0000 C   0  0  0  0  0  0  0  0  0  0  0  0
    2.7845   -1.5229    0.0000 Cl  0  0  0  0  0  0  0  0  0  0  0  0
    1.3556   -1.5229    0.0000 C   0  0  0  0  0  0  0  0  0  0  0  0
   -0.1435   -0.0305    0.0000 C   0  0  0  0  0  0  0  0  0  0  0  0
   -0.3984    0.7541    0.0000 O   0  0  0  0  0  0  0  0  0  0  0  0
   -1.8659   -1.4124    0.0000 C   0  0  0  0  0  0  0  0  0  0  0  0
   -1.4534   -2.1269    0.0000 O   0  0  0  0  0  0  0  0  0  0  0  0
   -2.6909   -1.4124    0.0000 N   0  0  0  0  0  0  0  0  0  0  0  0
   -3.1034   -2.1269    0.0000 C   0  0  0  0  0  0  0  0  0  0  0  0
   -3.9284   -2.1269    0.0000 C   0  0  0  0  0  0  0  0  0  0  0  0
   -4.3409   -1.4124    0.0000 C   0  0  0  0  0  0  0  0  0  0  0  0
   -4.9729   -1.9427    0.0000 C   0  0  0  0  0  0  0  0  0  0  0  0
   -4.8297   -2.7552    0.0000 C   0  0  0  0  0  0  0  0  0  0  0  0
   -4.9729   -0.8821    0.0000 C   0  0  0  0  0  0  0  0  0  0  0  0
   -4.8297   -0.0696    0.0000 O   0  0  0  0  0  0  0  0  0  0  0  0
   -3.9284   -0.6979    0.0000 C   0  0  0  0  0  0  0  0  0  0  0  0
   -3.1034   -0.6979    0.0000 C   0  0  0  0  0  0  0  0  0  0  0  0
  2  1  1  1  0  0  0
  2  3  1  0  0  0  0
  3  4  1  0  0  0  0
  3  5  1  0  0  0  0
  2  6  1  0  0  0  0
  6  7  1  0  0  0  0
  7  8  2  0  0  0  0
  7  9  1  0  0  0  0
  9 10  2  0  0  0  0
 10 11  1  0  0  0  0
 11 12  2  0  0  0  0
 12 13  1  0  0  0  0
 12 14  1  0  0  0  0
 14 15  1  0  0  0  0
 14 16  2  0  0  0  0
  9 16  1  0  0  0  0
 10 17  1  0  0  0  0
  6 17  1  0  0  0  0
 17 18  2  0  0  0  0
  2 19  1  0  0  0  0
 19 20  2  0  0  0  0
 19 21  1  0  0  0  0
 21 22  1  0  0  0  0
 22 23  1  0  0  0  0
 23 24  1  0  0  0  0
 24 25  1  0  0  0  0
 25 26  1  0  0  0  0
 24 27  1  0  0  0  0
 27 28  1  0  0  0  0
 24 29  1  0  0  0  0
 29 30  1  0  0  0  0
 21 30  1  0  0  0  0
M  END
> <ID>
CPD_790

$$$$
CPD_795
  Mrv1822 09091914012D          

 31 34  0  0  0  0            999 V2000
   -2.8579   -6.6000    0.0000 C   0  0  0  0  0  0  0  0  0  0  0  0
   -2.8579   -5.7750    0.0000 N   0  0  0  0  0  0  0  0  0  0  0  0
   -3.5724   -5.3625    0.0000 C   0  0  0  0  0  0  0  0  0  0  0  0
   -4.2868   -5.7750    0.0000 C   0  0  0  0  0  0  0  0  0  0  0  0
   -5.0013   -5.3625    0.0000 N   0  0  0  0  0  0  0  0  0  0  0  0
   -5.7158   -5.7750    0.0000 C   0  0  0  0  0  0  0  0  0  0  0  0
   -5.7158   -6.6000    0.0000 C   0  0  0  0  0  0  0  0  0  0  0  0
   -5.0013   -7.0125    0.0000 C   0  0  0  0  0  0  0  0  0  0  0  0
   -6.4302   -7.0125    0.0000 C   0  0  0  0  0  0  0  0  0  0  0  0
   -7.1447   -6.6000    0.0000 C   0  0  0  0  0  0  0  0  0  0  0  0
   -7.1447   -5.7750    0.0000 C   0  0  0  0  0  0  0  0  0  0  0  0
   -6.4302   -5.3625    0.0000 C   0  0  0  0  0  0  0  0  0  0  0  0
   -2.1434   -5.3625    0.0000 C   0  0  0  0  0  0  0  0  0  0  0  0
   -2.1434   -4.5375    0.0000 O   0  0  0  0  0  0  0  0  0  0  0  0
   -1.4289   -5.7750    0.0000 C   0  0  0  0  0  0  0  0  0  0  0  0
   -0.7145   -5.3625    0.0000 C   0  0  0  0  0  0  0  0  0  0  0  0
    0.0000   -5.7750    0.0000 N   0  0  0  0  0  0  0  0  0  0  0  0
    0.0000   -6.6000    0.0000 C   0  0  0  0  0  0  0  0  0  0  0  0
   -0.7145   -7.0125    0.0000 N   0  0  0  0  0  0  0  0  0  0  0  0
   -1.4289   -6.6000    0.0000 C   0  0  0  0  0  0  0  0  0  0  0  0
   -2.1434   -7.0125    0.0000 C   0  0  0  0  0  0  0  0  0  0  0  0
    0.7145   -7.0125    0.0000 N   0  0  0  0  0  0  0  0  0  0  0  0
    0.7145   -7.8375    0.0000 C   0  0  0  0  0  0  0  0  0  0  0  0
    1.4289   -8.2500    0.0000 C   0  0  0  0  0  0  0  0  0  0  0  0
    2.1434   -7.8375    0.0000 C   0  0  0  0  0  0  0  0  0  0  0  0
    2.1434   -7.0125    0.0000 C   0  0  0  0  0  0  0  0  0  0  0  0
    1.4289   -6.6000    0.0000 C   0  0  0  0  0  0  0  0  0  0  0  0
    2.8579   -6.6000    0.0000 C   0  0  0  0  0  0  0  0  0  0  0  0
    3.5724   -7.0125    0.0000 C   0  0  0  0  0  0  0  0  0  0  0  0
    3.5724   -7.8375    0.0000 C   0  0  0  0  0  0  0  0  0  0  0  0
    2.8579   -8.2500    0.0000 C   0  0  0  0  0  0  0  0  0  0  0  0
  1  2  1  0  0  0  0
  2  3  1  0  0  0  0
  3  4  1  0  0  0  0
  4  5  1  0  0  0  0
  5  6  1  0  0  0  0
  6  7  2  0  0  0  0
  7  8  1  0  0  0  0
  7  9  1  0  0  0  0
  9 10  2  0  0  0  0
 10 11  1  0  0  0  0
 11 12  2  0  0  0  0
  6 12  1  0  0  0  0
  2 13  1  0  0  0  0
 13 14  2  0  0  0  0
 13 15  1  0  0  0  0
 15 16  2  0  0  0  0
 16 17  1  0  0  0  0
 17 18  2  0  0  0  0
 18 19  1  0  0  0  0
 19 20  2  0  0  0  0
 15 20  1  0  0  0  0
 20 21  1  0  0  0  0
 18 22  1  0  0  0  0
 22 23  1  0  0  0  0
 23 24  1  0  0  0  0
 24 25  1  0  0  0  0
 25 26  2  0  0  0  0
 26 27  1  0  0  0  0
 22 27  1  0  0  0  0
 26 28  1  0  0  0  0
 28 29  2  0  0  0  0
 29 30  1  0  0  0  0
 30 31  2  0  0  0  0
 25 31  1  0  0  0  0
M  END
> <ID>
CPD_795

$$$$
CPD_800
  Mrv1822 09091914012D          

 36 38  0  0  0  0            999 V2000
    0.7145   -4.5375    0.0000 C   0  0  0  0  0  0  0  0  0  0  0  0
    0.7145   -3.7125    0.0000 N   0  0  0  0  0  0  0  0  0  0  0  0
    0.0000   -3.3000    0.0000 C   0  0  0  0  0  0  0  0  0  0  0  0
   -0.7145   -3.7125    0.0000 C   0  0  0  0  0  0  0  0  0  0  0  0
   -1.4289   -3.3000    0.0000 N   0  0  0  0  0  0  0  0  0  0  0  0
   -2.1434   -3.7125    0.0000 C   0  0  0  0  0  0  0  0  0  0  0  0
   -2.1434   -4.5375    0.0000 C   0  0  0  0  0  0  0  0  0  0  0  0
   -1.4289   -4.9500    0.0000 C   0  0  0  0  0  0  0  0  0  0  0  0
   -2.8579   -4.9500    0.0000 C   0  0  0  0  0  0  0  0  0  0  0  0
   -3.5724   -4.5375    0.0000 C   0  0  0  0  0  0  0  0  0  0  0  0
   -3.5724   -3.7125    0.0000 C   0  0  0  0  0  0  0  0  0  0  0  0
   -2.8579   -3.3000    0.0000 C   0  0  0  0  0  0  0  0  0  0  0  0
    1.4289   -3.3000    0.0000 C   0  0  0  0  0  0  0  0  0  0  0  0
    2.1434   -3.7125    0.0000 O   0  0  0  0  0  0  0  0  0  0  0  0
    1.4289   -2.4750    0.0000 C   0  0  0  0  0  0  0  0  0  0  0  0
    2.1434   -2.0625    0.0000 C   0  0  0  0  0  0  0  0  0  0  0  0
    2.8579   -2.4750    0.0000 C   0  0  0  0  0  0  0  0  0  0  0  0
    3.5724   -2.0625    0.0000 C   0  0  0  0  0  0  0  0  0  0  0  0
    4.2868   -2.4750    0.0000 C   0  0  0  0  0  0  0  0  0  0  0  0
    4.2868   -3.3000    0.0000 C   0  0  0  0  0  0  0  0  0  0  0  0
    3.5724   -3.7125    0.0000 C   0  0  0  0  0  0  0  0  0  0  0  0
    2.8579   -3.3000    0.0000 C   0  0  0  0  0  0  0  0  0  0  0  0
    0.7145   -2.0625    0.0000 N   0  0  0  0  0  0  0  0  0  0  0  0
    0.7145   -1.2375    0.0000 S   0  0  0  0  0  0  0  0  0  0  0  0
    1.5395   -1.2375    0.0000 O   0  0  0  0  0  0  0  0  0  0  0  0
   -0.1105   -1.2375    0.0000 O   0  0  0  0  0  0  0  0  0  0  0  0
    0.7145   -0.4125    0.0000 C   0  0  0  0  0  0  0  0  0  0  0  0
    0.0000   -0.0000    0.0000 C   0  0  0  0  0  0  0  0  0  0  0  0
    0.0000    0.8250    0.0000 C   0  0  0  0  0  0  0  0  0  0  0  0
    0.7145    1.2375    0.0000 C   0  0  0  0  0  0  0  0  0  0  0  0
    0.7145    2.0625    0.0000 N   0  0  0  0  0  0  0  0  0  0  0  0
    1.4289    2.4750    0.0000 C   0  0  0  0  0  0  0  0  0  0  0  0
    1.4289    3.3000    0.0000 C   0  0  0  0  0  0  0  0  0  0  0  0
    2.1434    2.0625    0.0000 O   0  0  0  0  0  0  0  0  0  0  0  0
    1.4289    0.8250    0.0000 C   0  0  0  0  0  0  0  0  0  0  0  0
    1.4289   -0.0000    0.0000 C   0  0  0  0  0  0  0  0  0  0  0  0
  1  2  1  0  0  0  0
  2  3  1  0  0  0  0
  3  4  1  0  0  0  0
  4  5  1  0  0  0  0
  5  6  1  0  0  0  0
  6  7  2  0  0  0  0
  7  8  1  0  0  0  0
  7  9  1  0  0  0  0
  9 10  2  0  0  0  0
 10 11  1  0  0  0  0
 11 12  2  0  0  0  0
  6 12  1  0  0  0  0
  2 13  1  0  0  0  0
 13 14  2  0  0  0  0
 13 15  1  0  0  0  0
 15 16  1  0  0  0  0
 16 17  1  0  0  0  0
 17 18  2  0  0  0  0
 18 19  1  0  0  0  0
 19 20  2  0  0  0  0
 20 21  1  0  0  0  0
 21 22  2  0  0  0  0
 17 22  1  0  0  0  0
 15 23  1  0  0  0  0
 23 24  1  0  0  0  0
 24 25  2  0  0  0  0
 24 26  2  0  0  0  0
 24 27  1  0  0  0  0
 27 28  2  0  0  0  0
 28 29  1  0  0  0  0
 29 30  2  0  0  0  0
 30 31  1  0  0  0  0
 31 32  1  0  0  0  0
 32 33  1  0  0  0  0
 32 34  2  0  0  0  0
 30 35  1  0  0  0  0
 35 36  2  0  0  0  0
 27 36  1  0  0  0  0
M  END
> <ID>
CPD_800

$$$$
CPD_805
  Mrv1822 09091914012D          

 29 31  0  0  0  0            999 V2000
   -6.4302   -0.4125    0.0000 C   0  0  0  0  0  0  0  0  0  0  0  0
   -5.7158   -0.8250    0.0000 C   0  0  0  0  0  0  0  0  0  0  0  0
   -5.7158   -1.6500    0.0000 C   0  0  0  0  0  0  0  0  0  0  0  0
   -5.0013   -2.0625    0.0000 C   0  0  0  0  0  0  0  0  0  0  0  0
   -4.2868   -2.4750    0.0000 C   0  0  0  0  0  0  0  0  0  0  0  0
   -3.5724   -2.8875    0.0000 C   0  0  0  0  0  0  0  0  0  0  0  0
   -2.8579   -2.4750    0.0000 O   0  0  0  0  0  0  0  0  0  0  0  0
   -3.5724   -3.7125    0.0000 N   0  0  0  0  0  0  0  0  0  0  0  0
   -2.8579   -4.1250    0.0000 C   0  0  0  0  0  0  0  0  0  0  0  0
   -2.8579   -4.9500    0.0000 C   0  0  0  0  0  0  0  0  0  0  0  0
   -3.5724   -5.3625    0.0000 C   0  0  0  0  0  0  0  0  0  0  0  0
   -3.5724   -6.1875    0.0000 C   0  0  0  0  0  0  0  0  0  0  0  0
   -2.8579   -6.6000    0.0000 O   0  0  0  0  0  0  0  0  0  0  0  0
   -2.8579   -7.4250    0.0000 C   0  0  0  0  0  0  0  0  0  0  0  0
   -2.1434   -7.8375    0.0000 C   0  0  0  0  0  0  0  0  0  0  0  0
   -2.1434   -8.6625    0.0000 C   0  0  0  0  0  0  0  0  0  0  0  0
   -2.8579   -9.0750    0.0000 C   0  0  0  0  0  0  0  0  0  0  0  0
   -3.5724   -8.6625    0.0000 C   0  0  0  0  0  0  0  0  0  0  0  0
   -3.5724   -7.8375    0.0000 C   0  0  0  0  0  0  0  0  0  0  0  0
   -2.8579   -9.9000    0.0000 C   0  0  0  0  0  0  0  0  0  0  0  0
   -3.5724  -10.3125    0.0000 O   0  0  0  0  0  0  0  0  0  0  0  0
   -2.1434  -10.3125    0.0000 N   0  0  0  0  0  0  0  0  0  0  0  0
   -1.4289   -9.9000    0.0000 C   0  0  0  0  0  0  0  0  0  0  0  0
   -0.7145  -10.3125    0.0000 C   0  0  0  0  0  0  0  0  0  0  0  0
   -0.7145  -11.1375    0.0000 O   0  0  0  0  0  0  0  0  0  0  0  0
   -1.4289  -11.5500    0.0000 C   0  0  0  0  0  0  0  0  0  0  0  0
   -2.1434  -11.1375    0.0000 C   0  0  0  0  0  0  0  0  0  0  0  0
   -4.2868   -4.9500    0.0000 C   0  0  0  0  0  0  0  0  0  0  0  0
   -4.2868   -4.1250    0.0000 C   0  0  0  0  0  0  0  0  0  0  0  0
  1  2  1  0  0  0  0
  2  3  1  0  0  0  0
  3  4  1  0  0  0  0
  4  5  3  0  0  0  0
  5  6  1  0  0  0  0
  6  7  2  0  0  0  0
  6  8  1  0  0  0  0
  8  9  1  0  0  0  0
  9 10  1  0  0  0  0
 10 11  1  0  0  0  0
 11 12  1  0  0  0  0
 12 13  1  0  0  0  0
 13 14  1  0  0  0  0
 14 15  2  0  0  0  0
 15 16  1  0  0  0  0
 16 17  2  0  0  0  0
 17 18  1  0  0  0  0
 18 19  2  0  0  0  0
 14 19  1  0  0  0  0
 17 20  1  0  0  0  0
 20 21  2  0  0  0  0
 20 22  1  0  0  0  0
 22 23  1  0  0  0  0
 23 24  1  0  0  0  0
 24 25  1  0  0  0  0
 25 26  1  0  0  0  0
 26 27  1  0  0  0  0
 22 27  1  0  0  0  0
 11 28  1  0  0  0  0
 28 29  1  0  0  0  0
  8 29  1  0  0  0  0
M  END
> <ID>
CPD_805

$$$$
CPD_810
  Mrv1822 09091914012D          

 30 34  0  0  0  0            999 V2000
    8.6013   -0.4414    0.0000 O   0  0  0  0  0  0  0  0  0  0  0  0
    7.9882    0.1107    0.0000 C   0  0  0  0  0  0  0  0  0  0  0  0
    8.1597    0.9177    0.0000 N   0  0  0  0  0  0  0  0  0  0  0  0
    8.9443    1.1726    0.0000 C   0  0  0  0  0  0  0  0  0  0  0  0
    9.4964    1.7857    0.0000 C   0  0  0  0  0  0  0  0  0  0  0  0
    9.7513    1.0011    0.0000 C   0  0  0  0  0  0  0  0  0  0  0  0
    7.2035   -0.1443    0.0000 C   0  0  0  0  0  0  0  0  0  0  0  0
    7.0320   -0.9512    0.0000 C   0  0  0  0  0  0  0  0  0  0  0  0
    6.2474   -1.2062    0.0000 C   0  0  0  0  0  0  0  0  0  0  0  0
    5.6343   -0.6541    0.0000 C   0  0  0  0  0  0  0  0  0  0  0  0
    4.8497   -0.9091    0.0000 O   0  0  0  0  0  0  0  0  0  0  0  0
    4.2366   -0.3570    0.0000 C   0  0  0  0  0  0  0  0  0  0  0  0
    3.4520   -0.6120    0.0000 C   0  0  0  0  0  0  0  0  0  0  0  0
    3.1970   -1.3966    0.0000 C   0  0  0  0  0  0  0  0  0  0  0  0
    2.3720   -1.3966    0.0000 C   0  0  0  0  0  0  0  0  0  0  0  0
    2.1171   -0.6120    0.0000 C   0  0  0  0  0  0  0  0  0  0  0  0
    2.7845   -0.1271    0.0000 N   0  0  0  0  0  0  0  0  0  0  0  0
    2.7845    0.6979    0.0000 C   0  0  0  0  0  0  0  0  0  0  0  0
    3.4990    1.1104    0.0000 O   0  0  0  0  0  0  0  0  0  0  0  0
    2.0701    1.1104    0.0000 C   0  0  0  0  0  0  0  0  0  0  0  0
    1.3556    0.6979    0.0000 N   0  0  0  0  0  0  0  0  0  0  0  0
    0.6411    1.1104    0.0000 C   0  0  0  0  0  0  0  0  0  0  0  0
    0.6411    1.9354    0.0000 C   0  0  0  0  0  0  0  0  0  0  0  0
   -0.1435    2.1904    0.0000 C   0  0  0  0  0  0  0  0  0  0  0  0
   -0.6284    1.5229    0.0000 C   0  0  0  0  0  0  0  0  0  0  0  0
   -0.1435    0.8555    0.0000 N   0  0  0  0  0  0  0  0  0  0  0  0
    1.3556    2.3479    0.0000 C   0  0  0  0  0  0  0  0  0  0  0  0
    2.0701    1.9354    0.0000 N   0  0  0  0  0  0  0  0  0  0  0  0
    5.8058    0.1528    0.0000 C   0  0  0  0  0  0  0  0  0  0  0  0
    6.5905    0.4078    0.0000 C   0  0  0  0  0  0  0  0  0  0  0  0
  1  2  2  0  0  0  0
  2  3  1  0  0  0  0
  3  4  1  0  0  0  0
  4  5  1  0  0  0  0
  5  6  1  0  0  0  0
  4  6  1  0  0  0  0
  2  7  1  0  0  0  0
  7  8  2  0  0  0  0
  8  9  1  0  0  0  0
  9 10  2  0  0  0  0
 10 11  1  0  0  0  0
 11 12  1  0  0  0  0
 12 13  1  0  0  0  0
 13 14  1  0  0  0  0
 14 15  1  0  0  0  0
 15 16  1  0  0  0  0
 16 17  1  0  0  0  0
 13 17  1  0  0  0  0
 17 18  1  0  0  0  0
 18 19  2  0  0  0  0
 18 20  1  0  0  0  0
 20 21  2  0  0  0  0
 21 22  1  0  0  0  0
 22 23  2  0  0  0  0
 23 24  1  0  0  0  0
 24 25  2  0  0  0  0
 25 26  1  0  0  0  0
 22 26  1  0  0  0  0
 23 27  1  0  0  0  0
 27 28  2  0  0  0  0
 20 28  1  0  0  0  0
 10 29  1  0  0  0  0
 29 30  2  0  0  0  0
  7 30  1  0  0  0  0
M  END
> <ID>
CPD_810

$$$$
CPD_815
  Mrv1822 09091914012D          

 35 39  0  0  0  0            999 V2000
    0.8838   -2.1500    0.0000 N   0  0  0  0  0  0  0  0  0  0  0  0
    1.1387   -1.3654    0.0000 C   0  0  0  0  0  0  0  0  0  0  0  0
    0.6538   -0.6979    0.0000 C   0  0  0  0  0  0  0  0  0  0  0  0
    1.1387   -0.0305    0.0000 S   0  0  0  0  0  0  0  0  0  0  0  0
    1.9233   -0.2854    0.0000 C   0  0  0  0  0  0  0  0  0  0  0  0
    2.6378    0.1271    0.0000 C   0  0  0  0  0  0  0  0  0  0  0  0
    3.3523   -0.2854    0.0000 C   0  0  0  0  0  0  0  0  0  0  0  0
    3.3523   -1.1104    0.0000 C   0  0  0  0  0  0  0  0  0  0  0  0
    2.6378   -1.5229    0.0000 N   0  0  0  0  0  0  0  0  0  0  0  0
    1.9233   -1.1104    0.0000 C   0  0  0  0  0  0  0  0  0  0  0  0
    4.0668    0.1271    0.0000 C   0  0  0  0  0  0  0  0  0  0  0  0
    4.7812    0.5396    0.0000 F   0  0  0  0  0  0  0  0  0  0  0  0
    3.6543    0.8415    0.0000 F   0  0  0  0  0  0  0  0  0  0  0  0
    4.4793   -0.5874    0.0000 F   0  0  0  0  0  0  0  0  0  0  0  0
   -0.1712   -0.6979    0.0000 C   0  0  0  0  0  0  0  0  0  0  0  0
   -0.5837    0.0165    0.0000 O   0  0  0  0  0  0  0  0  0  0  0  0
   -0.5837   -1.4124    0.0000 N   0  0  0  0  0  0  0  0  0  0  0  0
   -0.2481   -2.1661    0.0000 C   0  0  0  0  0  0  0  0  0  0  0  0
   -0.8612   -2.7181    0.0000 C   0  0  0  0  0  0  0  0  0  0  0  0
   -1.5757   -2.3056    0.0000 C   0  0  0  0  0  0  0  0  0  0  0  0
   -1.4042   -1.4986    0.0000 C   0  0  0  0  0  0  0  0  0  0  0  0
   -1.9562   -0.8856    0.0000 C   0  0  0  0  0  0  0  0  0  0  0  0
   -2.7632   -1.0571    0.0000 O   0  0  0  0  0  0  0  0  0  0  0  0
   -3.3152   -0.4440    0.0000 C   0  0  0  0  0  0  0  0  0  0  0  0
   -4.1222   -0.6155    0.0000 C   0  0  0  0  0  0  0  0  0  0  0  0
   -4.6742   -0.0024    0.0000 C   0  0  0  0  0  0  0  0  0  0  0  0
   -4.4193    0.7822    0.0000 C   0  0  0  0  0  0  0  0  0  0  0  0
   -3.6123    0.9537    0.0000 C   0  0  0  0  0  0  0  0  0  0  0  0
   -3.0603    0.3406    0.0000 C   0  0  0  0  0  0  0  0  0  0  0  0
   -4.9713    1.3953    0.0000 C   0  0  0  0  0  0  0  0  0  0  0  0
   -4.7164    2.1799    0.0000 O   0  0  0  0  0  0  0  0  0  0  0  0
   -5.7783    1.2238    0.0000 N   0  0  0  0  0  0  0  0  0  0  0  0
   -6.3303    1.8369    0.0000 C   0  0  0  0  0  0  0  0  0  0  0  0
   -7.1149    2.0918    0.0000 C   0  0  0  0  0  0  0  0  0  0  0  0
   -6.5018    2.6438    0.0000 C   0  0  0  0  0  0  0  0  0  0  0  0
  1  2  1  0  0  0  0
  2  3  2  0  0  0  0
  3  4  1  0  0  0  0
  4  5  1  0  0  0  0
  5  6  2  0  0  0  0
  6  7  1  0  0  0  0
  7  8  2  0  0  0  0
  8  9  1  0  0  0  0
  9 10  2  0  0  0  0
  2 10  1  0  0  0  0
  5 10  1  0  0  0  0
  7 11  1  0  0  0  0
 11 12  1  0  0  0  0
 11 13  1  0  0  0  0
 11 14  1  0  0  0  0
  3 15  1  0  0  0  0
 15 16  2  0  0  0  0
 15 17  1  0  0  0  0
 17 18  1  0  0  0  0
 18 19  1  0  0  0  0
 19 20  1  0  0  0  0
 20 21  1  0  0  0  0
 17 21  1  0  0  0  0
 21 22  1  0  0  0  0
 22 23  1  0  0  0  0
 23 24  1  0  0  0  0
 24 25  2  0  0  0  0
 25 26  1  0  0  0  0
 26 27  2  0  0  0  0
 27 28  1  0  0  0  0
 28 29  2  0  0  0  0
 24 29  1  0  0  0  0
 27 30  1  0  0  0  0
 30 31  2  0  0  0  0
 30 32  1  0  0  0  0
 32 33  1  0  0  0  0
 33 34  1  0  0  0  0
 34 35  1  0  0  0  0
 33 35  1  0  0  0  0
M  END
> <ID>
CPD_815

$$$$
CPD_820
  Mrv1822 09091914012D          

 30 34  0  0  0  0            999 V2000
   -3.9588    5.4929    0.0000 O   0  0  0  0  0  0  0  0  0  0  0  0
   -3.8726    4.6725    0.0000 C   0  0  0  0  0  0  0  0  0  0  0  0
   -4.5400    4.1875    0.0000 N   0  0  0  0  0  0  0  0  0  0  0  0
   -5.2937    4.5231    0.0000 C   0  0  0  0  0  0  0  0  0  0  0  0
   -6.1141    4.4369    0.0000 C   0  0  0  0  0  0  0  0  0  0  0  0
   -5.7786    5.1905    0.0000 C   0  0  0  0  0  0  0  0  0  0  0  0
   -3.1189    4.3369    0.0000 C   0  0  0  0  0  0  0  0  0  0  0  0
   -2.4514    4.8218    0.0000 C   0  0  0  0  0  0  0  0  0  0  0  0
   -1.6978    4.4863    0.0000 C   0  0  0  0  0  0  0  0  0  0  0  0
   -1.6115    3.6658    0.0000 C   0  0  0  0  0  0  0  0  0  0  0  0
   -0.8579    3.3302    0.0000 O   0  0  0  0  0  0  0  0  0  0  0  0
   -0.7716    2.5097    0.0000 C   0  0  0  0  0  0  0  0  0  0  0  0
   -0.0179    2.1742    0.0000 C   0  0  0  0  0  0  0  0  0  0  0  0
    0.6965    2.5867    0.0000 C   0  0  0  0  0  0  0  0  0  0  0  0
    1.3096    2.0347    0.0000 C   0  0  0  0  0  0  0  0  0  0  0  0
    0.9741    1.2810    0.0000 C   0  0  0  0  0  0  0  0  0  0  0  0
    0.1536    1.3672    0.0000 N   0  0  0  0  0  0  0  0  0  0  0  0
   -0.3984    0.7541    0.0000 C   0  0  0  0  0  0  0  0  0  0  0  0
   -1.2054    0.9256    0.0000 O   0  0  0  0  0  0  0  0  0  0  0  0
   -0.1435   -0.0305    0.0000 C   0  0  0  0  0  0  0  0  0  0  0  0
   -0.6284   -0.6979    0.0000 C   0  0  0  0  0  0  0  0  0  0  0  0
   -0.1435   -1.3654    0.0000 N   0  0  0  0  0  0  0  0  0  0  0  0
    0.6411   -1.1104    0.0000 C   0  0  0  0  0  0  0  0  0  0  0  0
    0.6411   -0.2854    0.0000 C   0  0  0  0  0  0  0  0  0  0  0  0
    1.3556    0.1271    0.0000 C   0  0  0  0  0  0  0  0  0  0  0  0
    2.0701   -0.2854    0.0000 C   0  0  0  0  0  0  0  0  0  0  0  0
    2.0701   -1.1104    0.0000 N   0  0  0  0  0  0  0  0  0  0  0  0
    1.3556   -1.5229    0.0000 C   0  0  0  0  0  0  0  0  0  0  0  0
   -2.2790    3.1809    0.0000 C   0  0  0  0  0  0  0  0  0  0  0  0
   -3.0326    3.5164    0.0000 C   0  0  0  0  0  0  0  0  0  0  0  0
  1  2  2  0  0  0  0
  2  3  1  0  0  0  0
  3  4  1  0  0  0  0
  4  5  1  0  0  0  0
  5  6  1  0  0  0  0
  4  6  1  0  0  0  0
  2  7  1  0  0  0  0
  7  8  2  0  0  0  0
  8  9  1  0  0  0  0
  9 10  2  0  0  0  0
 10 11  1  0  0  0  0
 11 12  1  0  0  0  0
 12 13  1  0  0  0  0
 13 14  1  0  0  0  0
 14 15  1  0  0  0  0
 15 16  1  0  0  0  0
 16 17  1  0  0  0  0
 13 17  1  0  0  0  0
 17 18  1  0  0  0  0
 18 19  2  0  0  0  0
 18 20  1  0  0  0  0
 20 21  2  0  0  0  0
 21 22  1  0  0  0  0
 22 23  1  0  0  0  0
 23 24  2  0  0  0  0
 20 24  1  0  0  0  0
 24 25  1  0  0  0  0
 25 26  2  0  0  0  0
 26 27  1  0  0  0  0
 27 28  2  0  0  0  0
 23 28  1  0  0  0  0
 10 29  1  0  0  0  0
 29 30  2  0  0  0  0
  7 30  1  0  0  0  0
M  END
> <ID>
CPD_820

$$$$
CPD_825
  Mrv1822 09091914012D          

 33 37  0  0  0  0            999 V2000
    3.0272   -5.8625    0.0000 C   0  0  0  0  0  0  0  0  0  0  0  0
    3.2821   -5.0779    0.0000 N   0  0  0  0  0  0  0  0  0  0  0  0
    2.7972   -4.4104    0.0000 C   0  0  0  0  0  0  0  0  0  0  0  0
    3.2821   -3.7430    0.0000 C   0  0  0  0  0  0  0  0  0  0  0  0
    4.0668   -3.9979    0.0000 C   0  0  0  0  0  0  0  0  0  0  0  0
    4.7812   -3.5854    0.0000 C   0  0  0  0  0  0  0  0  0  0  0  0
    5.4957   -3.9979    0.0000 C   0  0  0  0  0  0  0  0  0  0  0  0
    6.2102   -3.5854    0.0000 C   0  0  0  0  0  0  0  0  0  0  0  0
    6.9246   -3.9979    0.0000 N   0  0  0  0  0  0  0  0  0  0  0  0
    7.6391   -3.5854    0.0000 C   0  0  0  0  0  0  0  0  0  0  0  0
    8.3536   -3.9979    0.0000 C   0  0  0  0  0  0  0  0  0  0  0  0
    9.0681   -3.5854    0.0000 C   0  0  0  0  0  0  0  0  0  0  0  0
    9.7825   -3.9979    0.0000 C   0  0  0  0  0  0  0  0  0  0  0  0
    9.7825   -4.8229    0.0000 C   0  0  0  0  0  0  0  0  0  0  0  0
   10.3956   -5.3750    0.0000 N   0  0  0  0  0  0  0  0  0  0  0  0
   11.2026   -5.2034    0.0000 C   0  0  0  0  0  0  0  0  0  0  0  0
   10.0601   -6.1287    0.0000 C   0  0  0  0  0  0  0  0  0  0  0  0
    9.2396   -6.0424    0.0000 C   0  0  0  0  0  0  0  0  0  0  0  0
    9.0681   -5.2354    0.0000 C   0  0  0  0  0  0  0  0  0  0  0  0
    8.3536   -4.8229    0.0000 C   0  0  0  0  0  0  0  0  0  0  0  0
    6.9246   -4.8229    0.0000 C   0  0  0  0  0  0  0  0  0  0  0  0
    6.2102   -5.2354    0.0000 O   0  0  0  0  0  0  0  0  0  0  0  0
    7.6391   -5.2354    0.0000 C   0  0  0  0  0  0  0  0  0  0  0  0
    7.6391   -6.0604    0.0000 C   0  0  0  0  0  0  0  0  0  0  0  0
    8.3536   -6.4729    0.0000 N   0  0  0  0  0  0  0  0  0  0  0  0
    8.3536   -7.2979    0.0000 C   0  0  0  0  0  0  0  0  0  0  0  0
    7.6391   -7.7104    0.0000 C   0  0  0  0  0  0  0  0  0  0  0  0
    6.9246   -7.2979    0.0000 N   0  0  0  0  0  0  0  0  0  0  0  0
    6.9246   -6.4729    0.0000 C   0  0  0  0  0  0  0  0  0  0  0  0
    6.2102   -6.0604    0.0000 O   0  0  0  0  0  0  0  0  0  0  0  0
    5.4957   -4.8229    0.0000 C   0  0  0  0  0  0  0  0  0  0  0  0
    4.7812   -5.2354    0.0000 C   0  0  0  0  0  0  0  0  0  0  0  0
    4.0668   -4.8229    0.0000 C   0  0  0  0  0  0  0  0  0  0  0  0
  1  2  1  0  0  0  0
  2  3  1  0  0  0  0
  3  4  2  0  0  0  0
  4  5  1  0  0  0  0
  5  6  2  0  0  0  0
  6  7  1  0  0  0  0
  7  8  1  0  0  0  0
  8  9  1  0  0  0  0
  9 10  1  0  0  0  0
 10 11  1  0  0  0  0
 11 12  2  0  0  0  0
 12 13  1  0  0  0  0
 13 14  2  0  0  0  0
 14 15  1  0  0  0  0
 15 16  1  0  0  0  0
 15 17  1  0  0  0  0
 17 18  2  0  0  0  0
 18 19  1  0  0  0  0
 14 19  1  0  0  0  0
 19 20  2  0  0  0  0
 11 20  1  0  0  0  0
  9 21  1  0  0  0  0
 21 22  2  0  0  0  0
 21 23  1  0  0  0  0
 23 24  1  0  0  0  0
 24 25  1  0  0  0  0
 25 26  1  0  0  0  0
 26 27  1  0  0  0  0
 27 28  1  0  0  0  0
 28 29  1  0  0  0  0
 24 29  1  0  0  0  0
 29 30  2  0  0  0  0
  7 31  2  0  0  0  0
 31 32  1  0  0  0  0
 32 33  2  0  0  0  0
  2 33  1  0  0  0  0
  5 33  1  0  0  0  0
M  END
> <ID>
CPD_825

$$$$
CPD_830
  Mrv1822 09091914012D          

 33 37  0  0  0  0            999 V2000
    3.0272   -5.8625    0.0000 C   0  0  0  0  0  0  0  0  0  0  0  0
    3.2821   -5.0779    0.0000 N   0  0  0  0  0  0  0  0  0  0  0  0
    2.7972   -4.4104    0.0000 C   0  0  0  0  0  0  0  0  0  0  0  0
    3.2821   -3.7430    0.0000 C   0  0  0  0  0  0  0  0  0  0  0  0
    4.0668   -3.9979    0.0000 C   0  0  0  0  0  0  0  0  0  0  0  0
    4.7812   -3.5854    0.0000 C   0  0  0  0  0  0  0  0  0  0  0  0
    5.4957   -3.9979    0.0000 C   0  0  0  0  0  0  0  0  0  0  0  0
    6.2102   -3.5854    0.0000 C   0  0  0  0  0  0  0  0  0  0  0  0
    6.9246   -3.9979    0.0000 N   0  0  0  0  0  0  0  0  0  0  0  0
    7.6391   -3.5854    0.0000 C   0  0  0  0  0  0  0  0  0  0  0  0
    8.3536   -3.9979    0.0000 C   0  0  0  0  0  0  0  0  0  0  0  0
    9.0681   -3.5854    0.0000 C   0  0  0  0  0  0  0  0  0  0  0  0
    9.7825   -3.9979    0.0000 C   0  0  0  0  0  0  0  0  0  0  0  0
    9.7825   -4.8229    0.0000 C   0  0  0  0  0  0  0  0  0  0  0  0
   10.3956   -5.3750    0.0000 N   0  0  0  0  0  0  0  0  0  0  0  0
   11.2026   -5.2034    0.0000 C   0  0  0  0  0  0  0  0  0  0  0  0
   10.0601   -6.1287    0.0000 C   0  0  0  0  0  0  0  0  0  0  0  0
    9.2396   -6.0424    0.0000 C   0  0  0  0  0  0  0  0  0  0  0  0
    9.0681   -5.2354    0.0000 C   0  0  0  0  0  0  0  0  0  0  0  0
    8.3536   -4.8229    0.0000 C   0  0  0  0  0  0  0  0  0  0  0  0
    6.9246   -4.8229    0.0000 C   0  0  0  0  0  0  0  0  0  0  0  0
    7.6391   -5.2354    0.0000 O   0  0  0  0  0  0  0  0  0  0  0  0
    6.2102   -5.2354    0.0000 C   0  0  0  0  0  0  0  0  0  0  0  0
    6.2102   -6.0604    0.0000 C   0  0  0  0  0  0  0  0  0  0  0  0
    5.4957   -6.4729    0.0000 C   0  0  0  0  0  0  0  0  0  0  0  0
    5.4957   -7.2979    0.0000 C   0  0  0  0  0  0  0  0  0  0  0  0
    4.7812   -7.7104    0.0000 C   0  0  0  0  0  0  0  0  0  0  0  0
    4.0668   -7.2979    0.0000 C   0  0  0  0  0  0  0  0  0  0  0  0
    4.0668   -6.4729    0.0000 C   0  0  0  0  0  0  0  0  0  0  0  0
    4.7812   -6.0604    0.0000 N   0  0  0  0  0  0  0  0  0  0  0  0
    5.4957   -4.8229    0.0000 C   0  0  0  0  0  0  0  0  0  0  0  0
    4.7812   -5.2354    0.0000 C   0  0  0  0  0  0  0  0  0  0  0  0
    4.0668   -4.8229    0.0000 C   0  0  0  0  0  0  0  0  0  0  0  0
  1  2  1  0  0  0  0
  2  3  1  0  0  0  0
  3  4  2  0  0  0  0
  4  5  1  0  0  0  0
  5  6  2  0  0  0  0
  6  7  1  0  0  0  0
  7  8  1  0  0  0  0
  8  9  1  0  0  0  0
  9 10  1  0  0  0  0
 10 11  1  0  0  0  0
 11 12  2  0  0  0  0
 12 13  1  0  0  0  0
 13 14  2  0  0  0  0
 14 15  1  0  0  0  0
 15 16  1  0  0  0  0
 15 17  1  0  0  0  0
 17 18  2  0  0  0  0
 18 19  1  0  0  0  0
 14 19  1  0  0  0  0
 19 20  2  0  0  0  0
 11 20  1  0  0  0  0
  9 21  1  0  0  0  0
 21 22  2  0  0  0  0
 21 23  1  0  0  0  0
 23 24  1  0  0  0  0
 24 25  1  0  0  0  0
 25 26  1  0  0  0  0
 26 27  1  0  0  0  0
 27 28  1  0  0  0  0
 28 29  1  0  0  0  0
 29 30  1  0  0  0  0
 25 30  1  0  0  0  0
  7 31  2  0  0  0  0
 31 32  1  0  0  0  0
 32 33  2  0  0  0  0
  2 33  1  0  0  0  0
  5 33  1  0  0  0  0
M  END
> <ID>
CPD_830

$$$$
CPD_835
  Mrv1822 09091914012D          

 25 27  0  0  0  0            999 V2000
   -6.5280    6.1356    0.0000 C   0  0  0  0  0  0  0  0  0  0  0  0
   -5.7528    6.4178    0.0000 C   0  0  0  0  0  0  0  0  0  0  0  0
   -5.4706    5.6425    0.0000 C   0  0  0  0  0  0  0  0  0  0  0  0
   -6.0349    7.1930    0.0000 C   0  0  0  0  0  0  0  0  0  0  0  0
   -4.9775    6.6999    0.0000 O   0  0  0  0  0  0  0  0  0  0  0  0
   -4.3455    6.1696    0.0000 C   0  0  0  0  0  0  0  0  0  0  0  0
   -4.4888    5.3572    0.0000 O   0  0  0  0  0  0  0  0  0  0  0  0
   -3.5703    6.4518    0.0000 N   0  0  0  0  0  0  0  0  0  0  0  0
   -2.9383    5.9215    0.0000 C   0  0  0  0  0  0  0  0  0  0  0  0
   -2.1631    6.2037    0.0000 C   0  0  0  0  0  0  0  0  0  0  0  0
   -1.5311    5.6734    0.0000 C   0  0  0  0  0  0  0  0  0  0  0  0
   -1.6743    4.8609    0.0000 C   0  0  0  0  0  0  0  0  0  0  0  0
   -2.4496    4.5787    0.0000 C   0  0  0  0  0  0  0  0  0  0  0  0
   -3.0816    5.1090    0.0000 C   0  0  0  0  0  0  0  0  0  0  0  0
   -1.0424    4.3306    0.0000 C   0  0  0  0  0  0  0  0  0  0  0  0
   -1.1856    3.5181    0.0000 O   0  0  0  0  0  0  0  0  0  0  0  0
   -0.2671    4.6128    0.0000 N   0  0  0  0  0  0  0  0  0  0  0  0
    0.3649    4.0825    0.0000 C   0  0  0  0  0  0  0  0  0  0  0  0
    0.7774    3.3680    0.0000 C   0  0  0  0  0  0  0  0  0  0  0  0
   -0.0476    3.3680    0.0000 C   0  0  0  0  0  0  0  0  0  0  0  0
    0.9969    4.6128    0.0000 C   0  0  0  0  0  0  0  0  0  0  0  0
    0.9393    5.4358    0.0000 C   0  0  0  0  0  0  0  0  0  0  0  0
    1.7042    5.7448    0.0000 S   0  0  0  0  0  0  0  0  0  0  0  0
    2.2345    5.1128    0.0000 C   0  0  0  0  0  0  0  0  0  0  0  0
    1.7974    4.4132    0.0000 C   0  0  0  0  0  0  0  0  0  0  0  0
  1  2  1  0  0  0  0
  2  3  1  0  0  0  0
  2  4  1  0  0  0  0
  2  5  1  0  0  0  0
  5  6  1  0  0  0  0
  6  7  2  0  0  0  0
  6  8  1  0  0  0  0
  8  9  1  0  0  0  0
  9 10  1  0  0  0  0
 10 11  1  0  0  0  0
 11 12  1  0  0  0  0
 12 13  1  0  0  0  0
 13 14  1  0  0  0  0
  9 14  1  0  0  0  0
 12 15  1  0  0  0  0
 15 16  2  0  0  0  0
 15 17  1  0  0  0  0
 17 18  1  0  0  0  0
 18 19  1  0  0  0  0
 19 20  1  0  0  0  0
 18 20  1  0  0  0  0
 18 21  1  0  0  0  0
 21 22  2  0  0  0  0
 22 23  1  0  0  0  0
 23 24  1  0  0  0  0
 24 25  2  0  0  0  0
 21 25  1  0  0  0  0
M  END
> <ID>
CPD_835

$$$$
CPD_840
  Mrv1822 09091914012D          

 20 23  0  0  0  0            999 V2000
    2.7845   -0.1271    0.0000 O   0  0  0  0  0  0  0  0  0  0  0  0
    2.7845    0.6979    0.0000 C   0  0  0  0  0  0  0  0  0  0  0  0
    3.4990    1.1104    0.0000 N   0  0  0  0  0  0  0  0  0  0  0  0
    4.2135    0.6979    0.0000 C   0  0  0  0  0  0  0  0  0  0  0  0
    4.7438    0.0660    0.0000 C   0  0  0  0  0  0  0  0  0  0  0  0
    3.9313   -0.0773    0.0000 C   0  0  0  0  0  0  0  0  0  0  0  0
    4.7438    1.3299    0.0000 C   0  0  0  0  0  0  0  0  0  0  0  0
    4.5442    2.1304    0.0000 C   0  0  0  0  0  0  0  0  0  0  0  0
    5.2438    2.5676    0.0000 S   0  0  0  0  0  0  0  0  0  0  0  0
    5.8758    2.0373    0.0000 C   0  0  0  0  0  0  0  0  0  0  0  0
    5.5668    1.2724    0.0000 C   0  0  0  0  0  0  0  0  0  0  0  0
    2.0701    1.1104    0.0000 C   0  0  0  0  0  0  0  0  0  0  0  0
    1.3556    0.6979    0.0000 C   0  0  0  0  0  0  0  0  0  0  0  0
    0.6411    1.1104    0.0000 C   0  0  0  0  0  0  0  0  0  0  0  0
    0.6411    1.9354    0.0000 C   0  0  0  0  0  0  0  0  0  0  0  0
   -0.1435    2.1904    0.0000 N   0  0  0  0  0  0  0  0  0  0  0  0
   -0.6284    1.5229    0.0000 C   0  0  0  0  0  0  0  0  0  0  0  0
   -0.1435    0.8555    0.0000 N   0  0  0  0  0  0  0  0  0  0  0  0
    1.3556    2.3479    0.0000 C   0  0  0  0  0  0  0  0  0  0  0  0
    2.0701    1.9354    0.0000 C   0  0  0  0  0  0  0  0  0  0  0  0
  1  2  2  0  0  0  0
  2  3  1  0  0  0  0
  3  4  1  0  0  0  0
  4  5  1  0  0  0  0
  5  6  1  0  0  0  0
  4  6  1  0  0  0  0
  4  7  1  0  0  0  0
  7  8  2  0  0  0  0
  8  9  1  0  0  0  0
  9 10  1  0  0  0  0
 10 11  2  0  0  0  0
  7 11  1  0  0  0  0
  2 12  1  0  0  0  0
 12 13  2  0  0  0  0
 13 14  1  0  0  0  0
 14 15  2  0  0  0  0
 15 16  1  0  0  0  0
 16 17  1  0  0  0  0
 17 18  2  0  0  0  0
 14 18  1  0  0  0  0
 15 19  1  0  0  0  0
 19 20  2  0  0  0  0
 12 20  1  0  0  0  0
M  END
> <ID>
CPD_840

$$$$
CPD_845
  Mrv1822 09091914012D          

 26 29  0  0  0  0            999 V2000
   -0.4864   -6.1692    0.0000 O   0  0  0  0  0  0  0  0  0  0  0  0
   -0.3432   -5.3567    0.0000 C   0  0  0  0  0  0  0  0  0  0  0  0
    0.4321   -5.0746    0.0000 N   0  0  0  0  0  0  0  0  0  0  0  0
    1.0641   -5.6049    0.0000 C   0  0  0  0  0  0  0  0  0  0  0  0
    1.4766   -6.3193    0.0000 C   0  0  0  0  0  0  0  0  0  0  0  0
    0.6516   -6.3193    0.0000 C   0  0  0  0  0  0  0  0  0  0  0  0
    1.6961   -5.0746    0.0000 C   0  0  0  0  0  0  0  0  0  0  0  0
    1.6385   -4.2516    0.0000 C   0  0  0  0  0  0  0  0  0  0  0  0
    2.4034   -3.9425    0.0000 S   0  0  0  0  0  0  0  0  0  0  0  0
    2.9337   -4.5745    0.0000 C   0  0  0  0  0  0  0  0  0  0  0  0
    2.4965   -5.2741    0.0000 C   0  0  0  0  0  0  0  0  0  0  0  0
   -0.9752   -4.8264    0.0000 C   0  0  0  0  0  0  0  0  0  0  0  0
   -1.7504   -5.1086    0.0000 C   0  0  0  0  0  0  0  0  0  0  0  0
   -2.3824   -4.5783    0.0000 C   0  0  0  0  0  0  0  0  0  0  0  0
   -2.2391   -3.7658    0.0000 N   0  0  0  0  0  0  0  0  0  0  0  0
   -1.4639   -3.4837    0.0000 C   0  0  0  0  0  0  0  0  0  0  0  0
   -0.8319   -4.0140    0.0000 C   0  0  0  0  0  0  0  0  0  0  0  0
   -2.8711   -3.2355    0.0000 S   0  0  0  0  0  0  0  0  0  0  0  0
   -2.3408   -2.6035    0.0000 O   0  0  0  0  0  0  0  0  0  0  0  0
   -3.4014   -3.8675    0.0000 O   0  0  0  0  0  0  0  0  0  0  0  0
   -3.5031   -2.7052    0.0000 C   0  0  0  0  0  0  0  0  0  0  0  0
   -4.2783   -2.9874    0.0000 C   0  0  0  0  0  0  0  0  0  0  0  0
   -4.9103   -2.4571    0.0000 C   0  0  0  0  0  0  0  0  0  0  0  0
   -4.7671   -1.6446    0.0000 C   0  0  0  0  0  0  0  0  0  0  0  0
   -3.9918   -1.3625    0.0000 C   0  0  0  0  0  0  0  0  0  0  0  0
   -3.3598   -1.8928    0.0000 C   0  0  0  0  0  0  0  0  0  0  0  0
  1  2  2  0  0  0  0
  2  3  1  0  0  0  0
  3  4  1  0  0  0  0
  4  5  1  0  0  0  0
  5  6  1  0  0  0  0
  4  6  1  0  0  0  0
  4  7  1  0  0  0  0
  7  8  2  0  0  0  0
  8  9  1  0  0  0  0
  9 10  1  0  0  0  0
 10 11  2  0  0  0  0
  7 11  1  0  0  0  0
  2 12  1  0  0  0  0
 12 13  1  0  0  0  0
 13 14  1  0  0  0  0
 14 15  1  0  0  0  0
 15 16  1  0  0  0  0
 16 17  1  0  0  0  0
 12 17  1  0  0  0  0
 15 18  1  0  0  0  0
 18 19  2  0  0  0  0
 18 20  2  0  0  0  0
 18 21  1  0  0  0  0
 21 22  2  0  0  0  0
 22 23  1  0  0  0  0
 23 24  2  0  0  0  0
 24 25  1  0  0  0  0
 25 26  2  0  0  0  0
 21 26  1  0  0  0  0
M  END
> <ID>
CPD_845

$$$$
CPD_850
  Mrv1822 09091914012D          

 32 35  0  0  0  0            999 V2000
    0.7145   -5.3625    0.0000 C   0  0  0  0  0  0  0  0  0  0  0  0
    0.7145   -6.1875    0.0000 C   0  0  0  0  0  0  0  0  0  0  0  0
    1.4289   -6.6000    0.0000 C   0  0  0  0  0  0  0  0  0  0  0  0
    2.1434   -6.1875    0.0000 Cl  0  0  0  0  0  0  0  0  0  0  0  0
    1.4289   -7.4250    0.0000 C   0  0  0  0  0  0  0  0  0  0  0  0
    0.7145   -7.8375    0.0000 C   0  0  0  0  0  0  0  0  0  0  0  0
    0.7145   -8.6625    0.0000 N   0  0  0  0  0  0  0  0  0  0  0  0
    1.4289   -9.0750    0.0000 C   0  0  0  0  0  0  0  0  0  0  0  0
    2.1434   -8.6625    0.0000 O   0  0  0  0  0  0  0  0  0  0  0  0
    1.4289   -9.9000    0.0000 C   0  0  0  0  0  0  0  0  0  0  0  0
    2.1434  -10.3125    0.0000 C   0  0  0  0  0  0  0  0  0  0  0  0
    2.1434  -11.1375    0.0000 C   0  0  0  0  0  0  0  0  0  0  0  0
    1.4289  -11.5500    0.0000 C   0  0  0  0  0  0  0  0  0  0  0  0
    0.7145  -11.1375    0.0000 C   0  0  0  0  0  0  0  0  0  0  0  0
    0.7145  -10.3125    0.0000 C   0  0  0  0  0  0  0  0  0  0  0  0
    2.8579   -9.9000    0.0000 C   0  0  0  0  0  0  0  0  0  0  0  0
    2.8579   -9.0750    0.0000 O   0  0  0  0  0  0  0  0  0  0  0  0
    3.5724  -10.3125    0.0000 N   0  0  0  0  0  0  0  0  0  0  0  0
    4.2868   -9.9000    0.0000 C   0  0  0  0  0  0  0  0  0  0  0  0
    4.2868   -9.0750    0.0000 C   0  0  0  0  0  0  0  0  0  0  0  0
    5.0013   -8.6625    0.0000 C   0  0  0  0  0  0  0  0  0  0  0  0
    5.7158   -9.0750    0.0000 C   0  0  0  0  0  0  0  0  0  0  0  0
    5.7158   -9.9000    0.0000 N   0  0  0  0  0  0  0  0  0  0  0  0
    5.0013  -10.3125    0.0000 C   0  0  0  0  0  0  0  0  0  0  0  0
    6.4302  -10.3125    0.0000 C   0  0  0  0  0  0  0  0  0  0  0  0
    7.1447   -9.9000    0.0000 N   0  0  0  0  0  0  0  0  0  0  0  0
    7.8592  -10.3125    0.0000 C   0  0  0  0  0  0  0  0  0  0  0  0
    7.8592  -11.1375    0.0000 C   0  0  0  0  0  0  0  0  0  0  0  0
    7.1447  -11.5500    0.0000 N   0  0  0  0  0  0  0  0  0  0  0  0
    6.4302  -11.1375    0.0000 C   0  0  0  0  0  0  0  0  0  0  0  0
    0.0000   -7.4250    0.0000 C   0  0  0  0  0  0  0  0  0  0  0  0
    0.0000   -6.6000    0.0000 C   0  0  0  0  0  0  0  0  0  0  0  0
  1  2  1  0  0  0  0
  2  3  2  0  0  0  0
  3  4  1  0  0  0  0
  3  5  1  0  0  0  0
  5  6  2  0  0  0  0
  6  7  1  0  0  0  0
  7  8  1  0  0  0  0
  8  9  2  0  0  0  0
  8 10  1  0  0  0  0
 10 11  2  0  0  0  0
 11 12  1  0  0  0  0
 12 13  2  0  0  0  0
 13 14  1  0  0  0  0
 14 15  2  0  0  0  0
 10 15  1  0  0  0  0
 11 16  1  0  0  0  0
 16 17  2  0  0  0  0
 16 18  1  0  0  0  0
 18 19  1  0  0  0  0
 19 20  1  0  0  0  0
 20 21  1  0  0  0  0
 21 22  1  0  0  0  0
 22 23  1  0  0  0  0
 23 24  1  0  0  0  0
 19 24  1  0  0  0  0
 23 25  1  0  0  0  0
 25 26  2  0  0  0  0
 26 27  1  0  0  0  0
 27 28  2  0  0  0  0
 28 29  1  0  0  0  0
 29 30  2  0  0  0  0
 25 30  1  0  0  0  0
  6 31  1  0  0  0  0
 31 32  2  0  0  0  0
  2 32  1  0  0  0  0
M  END
> <ID>
CPD_850

$$$$
CPD_855
  Mrv1822 09091914012D          

 23 25  0  0  0  0            999 V2000
    3.5724   -2.8875    0.0000 Cl  0  0  0  0  0  0  0  0  0  0  0  0
    3.5724   -3.7125    0.0000 C   0  0  0  0  0  0  0  0  0  0  0  0
    4.2868   -4.1250    0.0000 C   0  0  0  0  0  0  0  0  0  0  0  0
    4.2868   -4.9500    0.0000 C   0  0  0  0  0  0  0  0  0  0  0  0
    3.5724   -5.3625    0.0000 C   0  0  0  0  0  0  0  0  0  0  0  0
    2.8579   -4.9500    0.0000 C   0  0  0  0  0  0  0  0  0  0  0  0
    2.1434   -5.3625    0.0000 Cl  0  0  0  0  0  0  0  0  0  0  0  0
    2.8579   -4.1250    0.0000 C   0  0  0  0  0  0  0  0  0  0  0  0
    2.1434   -3.7125    0.0000 C   0  0  0  0  0  0  0  0  0  0  0  0
    1.4289   -4.1250    0.0000 O   0  0  0  0  0  0  0  0  0  0  0  0
    2.1434   -2.8875    0.0000 N   0  0  0  0  0  0  0  0  0  0  0  0
    1.4289   -2.4750    0.0000 C   0  0  0  0  0  0  0  0  0  0  0  0
    0.7145   -2.8875    0.0000 C   0  0  0  0  0  0  0  0  0  0  0  0
    0.0000   -2.4750    0.0000 C   0  0  0  0  0  0  0  0  0  0  0  0
    0.0000   -1.6500    0.0000 C   0  0  0  0  0  0  0  0  0  0  0  0
    0.7145   -1.2375    0.0000 N   0  0  0  0  0  0  0  0  0  0  0  0
    1.4289   -1.6500    0.0000 C   0  0  0  0  0  0  0  0  0  0  0  0
    0.7145   -0.4125    0.0000 C   0  0  0  0  0  0  0  0  0  0  0  0
    0.0000    0.0000    0.0000 N   0  0  0  0  0  0  0  0  0  0  0  0
    0.0000    0.8250    0.0000 C   0  0  0  0  0  0  0  0  0  0  0  0
    0.7145    1.2375    0.0000 C   0  0  0  0  0  0  0  0  0  0  0  0
    1.4289    0.8250    0.0000 N   0  0  0  0  0  0  0  0  0  0  0  0
    1.4289    0.0000    0.0000 C   0  0  0  0  0  0  0  0  0  0  0  0
  1  2  1  0  0  0  0
  2  3  2  0  0  0  0
  3  4  1  0  0  0  0
  4  5  2  0  0  0  0
  5  6  1  0  0  0  0
  6  7  1  0  0  0  0
  6  8  2  0  0  0  0
  2  8  1  0  0  0  0
  8  9  1  0  0  0  0
  9 10  2  0  0  0  0
  9 11  1  0  0  0  0
 11 12  1  0  0  0  0
 12 13  1  0  0  0  0
 13 14  1  0  0  0  0
 14 15  1  0  0  0  0
 15 16  1  0  0  0  0
 16 17  1  0  0  0  0
 12 17  1  0  0  0  0
 16 18  1  0  0  0  0
 18 19  2  0  0  0  0
 19 20  1  0  0  0  0
 20 21  2  0  0  0  0
 21 22  1  0  0  0  0
 22 23  2  0  0  0  0
 18 23  1  0  0  0  0
M  END
> <ID>
CPD_855

$$$$
CPD_860
  Mrv1822 09091914012D          

 23 24  0  0  0  0            999 V2000
    2.1434   -5.3625    0.0000 C   0  0  0  0  0  0  0  0  0  0  0  0
    2.8579   -4.9500    0.0000 C   0  0  0  0  0  0  0  0  0  0  0  0
    3.5724   -5.3625    0.0000 C   0  0  0  0  0  0  0  0  0  0  0  0
    4.2868   -4.9500    0.0000 C   0  0  0  0  0  0  0  0  0  0  0  0
    5.0013   -5.3625    0.0000 C   0  0  0  0  0  0  0  0  0  0  0  0
    5.0013   -6.1875    0.0000 C   0  0  0  0  0  0  0  0  0  0  0  0
    5.7158   -6.6000    0.0000 O   0  0  0  0  0  0  0  0  0  0  0  0
    4.2868   -6.6000    0.0000 O   0  0  0  0  0  0  0  0  0  0  0  0
    5.7158   -4.9500    0.0000 C   0  0  0  0  0  0  0  0  0  0  0  0
    5.7158   -4.1250    0.0000 O   0  0  0  0  0  0  0  0  0  0  0  0
    6.4302   -5.3625    0.0000 N   0  0  0  0  0  0  0  0  0  0  0  0
    7.1447   -4.9500    0.0000 C   0  0  0  0  0  0  0  0  0  0  0  0
    7.1447   -4.1250    0.0000 C   0  0  0  0  0  0  0  0  0  0  0  0
    7.8592   -3.7125    0.0000 C   0  0  0  0  0  0  0  0  0  0  0  0
    8.5737   -4.1250    0.0000 C   0  0  0  0  0  0  0  0  0  0  0  0
    8.5737   -4.9500    0.0000 N   0  0  0  0  0  0  0  0  0  0  0  0
    7.8592   -5.3625    0.0000 C   0  0  0  0  0  0  0  0  0  0  0  0
    9.2881   -5.3625    0.0000 C   0  0  0  0  0  0  0  0  0  0  0  0
   10.0026   -4.9500    0.0000 N   0  0  0  0  0  0  0  0  0  0  0  0
   10.7171   -5.3625    0.0000 C   0  0  0  0  0  0  0  0  0  0  0  0
   10.7171   -6.1875    0.0000 C   0  0  0  0  0  0  0  0  0  0  0  0
   10.0026   -6.6000    0.0000 N   0  0  0  0  0  0  0  0  0  0  0  0
    9.2881   -6.1875    0.0000 C   0  0  0  0  0  0  0  0  0  0  0  0
  1  2  1  0  0  0  0
  2  3  1  0  0  0  0
  3  4  1  0  0  0  0
  4  5  1  0  0  0  0
  5  6  1  0  0  0  0
  6  7  1  0  0  0  0
  6  8  2  0  0  0  0
  5  9  1  0  0  0  0
  9 10  2  0  0  0  0
  9 11  1  0  0  0  0
 11 12  1  0  0  0  0
 12 13  1  0  0  0  0
 13 14  1  0  0  0  0
 14 15  1  0  0  0  0
 15 16  1  0  0  0  0
 16 17  1  0  0  0  0
 12 17  1  0  0  0  0
 16 18  1  0  0  0  0
 18 19  2  0  0  0  0
 19 20  1  0  0  0  0
 20 21  2  0  0  0  0
 21 22  1  0  0  0  0
 22 23  2  0  0  0  0
 18 23  1  0  0  0  0
M  END
> <ID>
CPD_860

$$$$
CPD_865
  Mrv1822 09091914012D          

 36 40  0  0  0  0            999 V2000
    6.9246   -0.1271    0.0000 H   0  0  0  0  0  0  0  0  0  0  0  0
    6.9246    0.6979    0.0000 N   0  0  0  0  0  0  0  0  0  0  0  0
    7.6391    1.1104    0.0000 C   0  0  0  0  0  0  0  0  0  0  0  0
    8.3536    0.6979    0.0000 C   0  0  0  0  0  0  0  0  0  0  0  0
    9.1073    1.0335    0.0000 C   0  0  0  0  0  0  0  0  0  0  0  0
    9.6593    0.4204    0.0000 C   0  0  0  0  0  0  0  0  0  0  0  0
    9.2468   -0.2941    0.0000 C   0  0  0  0  0  0  0  0  0  0  0  0
    9.5823   -1.0477    0.0000 C   0  0  0  0  0  0  0  0  0  0  0  0
    8.4398   -0.1225    0.0000 S   0  0  0  0  0  0  0  0  0  0  0  0
    6.2102    1.1104    0.0000 C   0  0  0  0  0  0  0  0  0  0  0  0
    5.4957    0.6979    0.0000 C   0  0  0  0  0  0  0  0  0  0  0  0
    4.7812    1.1104    0.0000 C   0  0  0  0  0  0  0  0  0  0  0  0
    4.7812    1.9354    0.0000 C   0  0  0  0  0  0  0  0  0  0  0  0
    5.4957    2.3479    0.0000 C   0  0  0  0  0  0  0  0  0  0  0  0
    6.2102    1.9354    0.0000 C   0  0  0  0  0  0  0  0  0  0  0  0
    4.0668    2.3479    0.0000 C   0  0  0  0  0  0  0  0  0  0  0  0
    4.0668    3.1729    0.0000 O   0  0  0  0  0  0  0  0  0  0  0  0
    3.3523    1.9354    0.0000 N   0  0  0  0  0  0  0  0  0  0  0  0
    3.3523    1.1104    0.0000 C   0  0  0  0  0  0  0  0  0  0  0  0
    2.6378    0.6979    0.0000 C   0  0  0  0  0  0  0  0  0  0  0  0
    1.9233    1.1104    0.0000 C   0  0  0  0  0  0  0  0  0  0  0  0
    1.9233    1.9354    0.0000 C   0  0  0  0  0  0  0  0  0  0  0  0
    2.6378    2.3479    0.0000 C   0  0  0  0  0  0  0  0  0  0  0  0
    1.1387    2.1904    0.0000 C   0  0  0  0  0  0  0  0  0  0  0  0
    0.8838    2.9750    0.0000 C   0  0  0  0  0  0  0  0  0  0  0  0
    0.0768    3.1465    0.0000 O   0  0  0  0  0  0  0  0  0  0  0  0
   -0.1781    3.9312    0.0000 C   0  0  0  0  0  0  0  0  0  0  0  0
   -0.9851    4.1027    0.0000 C   0  0  0  0  0  0  0  0  0  0  0  0
   -1.2400    4.8873    0.0000 C   0  0  0  0  0  0  0  0  0  0  0  0
   -0.6880    5.5004    0.0000 C   0  0  0  0  0  0  0  0  0  0  0  0
   -0.9429    6.2850    0.0000 F   0  0  0  0  0  0  0  0  0  0  0  0
    0.1190    5.3289    0.0000 C   0  0  0  0  0  0  0  0  0  0  0  0
    0.3739    4.5442    0.0000 C   0  0  0  0  0  0  0  0  0  0  0  0
    0.6538    1.5229    0.0000 N   0  0  0  0  0  0  0  0  0  0  0  0
    1.1387    0.8555    0.0000 N   0  0  0  0  0  0  0  0  0  0  0  0
    0.8838    0.0709    0.0000 C   0  0  0  0  0  0  0  0  0  0  0  0
  1  2  1  0  0  0  0
  2  3  1  0  0  0  0
  3  4  1  0  0  0  0
  4  5  2  0  0  0  0
  5  6  1  0  0  0  0
  6  7  2  0  0  0  0
  7  8  1  0  0  0  0
  7  9  1  0  0  0  0
  4  9  1  0  0  0  0
  2 10  1  0  0  0  0
 10 11  2  0  0  0  0
 11 12  1  0  0  0  0
 12 13  2  0  0  0  0
 13 14  1  0  0  0  0
 14 15  2  0  0  0  0
 10 15  1  0  0  0  0
 13 16  1  0  0  0  0
 16 17  2  0  0  0  0
 16 18  1  0  0  0  0
 18 19  1  0  0  0  0
 19 20  1  0  0  0  0
 20 21  1  0  0  0  0
 21 22  2  0  0  0  0
 22 23  1  0  0  0  0
 18 23  1  0  0  0  0
 22 24  1  0  0  0  0
 24 25  1  0  0  0  0
 25 26  1  0  0  0  0
 26 27  1  0  0  0  0
 27 28  2  0  0  0  0
 28 29  1  0  0  0  0
 29 30  2  0  0  0  0
 30 31  1  0  0  0  0
 30 32  1  0  0  0  0
 32 33  2  0  0  0  0
 27 33  1  0  0  0  0
 24 34  2  0  0  0  0
 34 35  1  0  0  0  0
 21 35  1  0  0  0  0
 35 36  1  0  0  0  0
M  END
> <ID>
CPD_865

$$$$
CPD_870
  Mrv1822 09091914012D          

 37 41  0  0  0  0            999 V2000
   -0.3984    0.7541    0.0000 C   0  0  0  0  0  0  0  0  0  0  0  0
   -0.1435   -0.0305    0.0000 N   0  0  0  0  0  0  0  0  0  0  0  0
   -0.6284   -0.6979    0.0000 N   0  0  0  0  0  0  0  0  0  0  0  0
   -0.1435   -1.3654    0.0000 C   0  0  0  0  0  0  0  0  0  0  0  0
   -0.3984   -2.1500    0.0000 C   0  0  0  0  0  0  0  0  0  0  0  0
   -1.2054   -2.3215    0.0000 O   0  0  0  0  0  0  0  0  0  0  0  0
   -1.4604   -3.1062    0.0000 C   0  0  0  0  0  0  0  0  0  0  0  0
   -0.9083   -3.7192    0.0000 C   0  0  0  0  0  0  0  0  0  0  0  0
   -1.1633   -4.5039    0.0000 C   0  0  0  0  0  0  0  0  0  0  0  0
   -1.9702   -4.6754    0.0000 C   0  0  0  0  0  0  0  0  0  0  0  0
   -2.2252   -5.4600    0.0000 F   0  0  0  0  0  0  0  0  0  0  0  0
   -2.5223   -4.0623    0.0000 C   0  0  0  0  0  0  0  0  0  0  0  0
   -2.2673   -3.2777    0.0000 C   0  0  0  0  0  0  0  0  0  0  0  0
    0.6411   -1.1104    0.0000 C   0  0  0  0  0  0  0  0  0  0  0  0
    0.6411   -0.2854    0.0000 C   0  0  0  0  0  0  0  0  0  0  0  0
    1.3556    0.1271    0.0000 C   0  0  0  0  0  0  0  0  0  0  0  0
    2.0701   -0.2854    0.0000 C   0  0  0  0  0  0  0  0  0  0  0  0
    2.0701   -1.1104    0.0000 N   0  0  0  0  0  0  0  0  0  0  0  0
    1.3556   -1.5229    0.0000 C   0  0  0  0  0  0  0  0  0  0  0  0
    2.7845   -1.5229    0.0000 C   0  0  0  0  0  0  0  0  0  0  0  0
    2.7845   -2.3479    0.0000 O   0  0  0  0  0  0  0  0  0  0  0  0
    3.4990   -1.1104    0.0000 C   0  0  0  0  0  0  0  0  0  0  0  0
    4.2135   -1.5229    0.0000 C   0  0  0  0  0  0  0  0  0  0  0  0
    4.9279   -1.1104    0.0000 C   0  0  0  0  0  0  0  0  0  0  0  0
    5.6424   -1.5229    0.0000 C   0  0  0  0  0  0  0  0  0  0  0  0
    5.6424   -2.3479    0.0000 C   0  0  0  0  0  0  0  0  0  0  0  0
    6.3569   -2.7604    0.0000 N   0  0  0  0  0  0  0  0  0  0  0  0
    6.3569   -3.5854    0.0000 C   0  0  0  0  0  0  0  0  0  0  0  0
    5.6424   -3.9979    0.0000 O   0  0  0  0  0  0  0  0  0  0  0  0
    7.0714   -3.9979    0.0000 C   0  0  0  0  0  0  0  0  0  0  0  0
    7.8250   -3.6624    0.0000 C   0  0  0  0  0  0  0  0  0  0  0  0
    8.3771   -4.2755    0.0000 C   0  0  0  0  0  0  0  0  0  0  0  0
    7.9646   -4.9900    0.0000 C   0  0  0  0  0  0  0  0  0  0  0  0
    8.3001   -5.7436    0.0000 C   0  0  0  0  0  0  0  0  0  0  0  0
    7.1576   -4.8184    0.0000 O   0  0  0  0  0  0  0  0  0  0  0  0
    4.9279   -2.7604    0.0000 C   0  0  0  0  0  0  0  0  0  0  0  0
    4.2135   -2.3479    0.0000 C   0  0  0  0  0  0  0  0  0  0  0  0
  1  2  1  0  0  0  0
  2  3  1  0  0  0  0
  3  4  2  0  0  0  0
  4  5  1  0  0  0  0
  5  6  1  0  0  0  0
  6  7  1  0  0  0  0
  7  8  2  0  0  0  0
  8  9  1  0  0  0  0
  9 10  2  0  0  0  0
 10 11  1  0  0  0  0
 10 12  1  0  0  0  0
 12 13  2  0  0  0  0
  7 13  1  0  0  0  0
  4 14  1  0  0  0  0
 14 15  2  0  0  0  0
  2 15  1  0  0  0  0
 15 16  1  0  0  0  0
 16 17  1  0  0  0  0
 17 18  1  0  0  0  0
 18 19  1  0  0  0  0
 14 19  1  0  0  0  0
 18 20  1  0  0  0  0
 20 21  2  0  0  0  0
 20 22  1  0  0  0  0
 22 23  1  0  0  0  0
 23 24  2  0  0  0  0
 24 25  1  0  0  0  0
 25 26  2  0  0  0  0
 26 27  1  0  0  0  0
 27 28  1  0  0  0  0
 28 29  2  0  0  0  0
 28 30  1  0  0  0  0
 30 31  2  0  0  0  0
 31 32  1  0  0  0  0
 32 33  2  0  0  0  0
 33 34  1  0  0  0  0
 33 35  1  0  0  0  0
 30 35  1  0  0  0  0
 26 36  1  0  0  0  0
 36 37  2  0  0  0  0
 23 37  1  0  0  0  0
M  END
> <ID>
CPD_870

$$$$
CPD_875
  Mrv1822 09091914012D          

 32 35  0  0  0  0            999 V2000
    4.7812    4.4104    0.0000 C   0  0  0  0  0  0  0  0  0  0  0  0
    4.7812    3.5854    0.0000 O   0  0  0  0  0  0  0  0  0  0  0  0
    5.4957    3.1729    0.0000 C   0  0  0  0  0  0  0  0  0  0  0  0
    6.2102    3.5854    0.0000 C   0  0  0  0  0  0  0  0  0  0  0  0
    6.9246    3.1729    0.0000 C   0  0  0  0  0  0  0  0  0  0  0  0
    6.9246    2.3479    0.0000 C   0  0  0  0  0  0  0  0  0  0  0  0
    7.6391    1.9354    0.0000 F   0  0  0  0  0  0  0  0  0  0  0  0
    6.2102    1.9354    0.0000 C   0  0  0  0  0  0  0  0  0  0  0  0
    5.4957    2.3479    0.0000 C   0  0  0  0  0  0  0  0  0  0  0  0
    4.7812    1.9354    0.0000 C   0  0  0  0  0  0  0  0  0  0  0  0
    4.7812    1.1104    0.0000 N   0  0  0  0  0  0  0  0  0  0  0  0
    4.0668    2.3479    0.0000 C   0  0  0  0  0  0  0  0  0  0  0  0
    4.0668    3.1729    0.0000 O   0  0  0  0  0  0  0  0  0  0  0  0
    3.3523    1.9354    0.0000 N   0  0  0  0  0  0  0  0  0  0  0  0
    3.3523    1.1104    0.0000 C   0  0  0  0  0  0  0  0  0  0  0  0
    2.6378    0.6979    0.0000 C   0  0  0  0  0  0  0  0  0  0  0  0
    1.9233    1.1104    0.0000 C   0  0  0  0  0  0  0  0  0  0  0  0
    1.9233    1.9354    0.0000 C   0  0  0  0  0  0  0  0  0  0  0  0
    2.6378    2.3479    0.0000 C   0  0  0  0  0  0  0  0  0  0  0  0
    1.1387    2.1904    0.0000 C   0  0  0  0  0  0  0  0  0  0  0  0
    0.8838    2.9750    0.0000 C   0  0  0  0  0  0  0  0  0  0  0  0
    0.0768    3.1465    0.0000 O   0  0  0  0  0  0  0  0  0  0  0  0
   -0.4752    2.5334    0.0000 C   0  0  0  0  0  0  0  0  0  0  0  0
   -0.2203    1.7488    0.0000 C   0  0  0  0  0  0  0  0  0  0  0  0
   -0.7723    1.1357    0.0000 C   0  0  0  0  0  0  0  0  0  0  0  0
   -1.5793    1.3072    0.0000 C   0  0  0  0  0  0  0  0  0  0  0  0
   -2.1313    0.6942    0.0000 F   0  0  0  0  0  0  0  0  0  0  0  0
   -1.8342    2.0919    0.0000 C   0  0  0  0  0  0  0  0  0  0  0  0
   -1.2822    2.7050    0.0000 C   0  0  0  0  0  0  0  0  0  0  0  0
    0.6538    1.5229    0.0000 N   0  0  0  0  0  0  0  0  0  0  0  0
    1.1387    0.8555    0.0000 N   0  0  0  0  0  0  0  0  0  0  0  0
    0.8838    0.0709    0.0000 C   0  0  0  0  0  0  0  0  0  0  0  0
  1  2  1  0  0  0  0
  2  3  1  0  0  0  0
  3  4  2  0  0  0  0
  4  5  1  0  0  0  0
  5  6  2  0  0  0  0
  6  7  1  0  0  0  0
  6  8  1  0  0  0  0
  8  9  2  0  0  0  0
  3  9  1  0  0  0  0
  9 10  1  0  0  0  0
 10 11  1  0  0  0  0
 10 12  1  0  0  0  0
 12 13  2  0  0  0  0
 12 14  1  0  0  0  0
 14 15  1  0  0  0  0
 15 16  1  0  0  0  0
 16 17  1  0  0  0  0
 17 18  2  0  0  0  0
 18 19  1  0  0  0  0
 14 19  1  0  0  0  0
 18 20  1  0  0  0  0
 20 21  1  0  0  0  0
 21 22  1  0  0  0  0
 22 23  1  0  0  0  0
 23 24  2  0  0  0  0
 24 25  1  0  0  0  0
 25 26  2  0  0  0  0
 26 27  1  0  0  0  0
 26 28  1  0  0  0  0
 28 29  2  0  0  0  0
 23 29  1  0  0  0  0
 20 30  2  0  0  0  0
 30 31  1  0  0  0  0
 17 31  1  0  0  0  0
 31 32  1  0  0  0  0
M  END
> <ID>
CPD_875

$$$$
CPD_880
  Mrv1822 09091914012D          

 36 40  0  0  0  0            999 V2000
   -0.3984    0.7541    0.0000 C   0  0  0  0  0  0  0  0  0  0  0  0
   -0.1435   -0.0305    0.0000 N   0  0  0  0  0  0  0  0  0  0  0  0
   -0.6284   -0.6979    0.0000 N   0  0  0  0  0  0  0  0  0  0  0  0
   -0.1435   -1.3654    0.0000 C   0  0  0  0  0  0  0  0  0  0  0  0
   -0.3984   -2.1500    0.0000 C   0  0  0  0  0  0  0  0  0  0  0  0
   -1.2054   -2.3215    0.0000 O   0  0  0  0  0  0  0  0  0  0  0  0
   -1.4604   -3.1062    0.0000 C   0  0  0  0  0  0  0  0  0  0  0  0
   -0.9083   -3.7192    0.0000 C   0  0  0  0  0  0  0  0  0  0  0  0
   -1.1633   -4.5039    0.0000 C   0  0  0  0  0  0  0  0  0  0  0  0
   -1.9702   -4.6754    0.0000 C   0  0  0  0  0  0  0  0  0  0  0  0
   -2.2252   -5.4600    0.0000 F   0  0  0  0  0  0  0  0  0  0  0  0
   -2.5223   -4.0623    0.0000 C   0  0  0  0  0  0  0  0  0  0  0  0
   -2.2673   -3.2777    0.0000 C   0  0  0  0  0  0  0  0  0  0  0  0
    0.6411   -1.1104    0.0000 C   0  0  0  0  0  0  0  0  0  0  0  0
    0.6411   -0.2854    0.0000 C   0  0  0  0  0  0  0  0  0  0  0  0
    1.3556    0.1271    0.0000 C   0  0  0  0  0  0  0  0  0  0  0  0
    2.0701   -0.2854    0.0000 C   0  0  0  0  0  0  0  0  0  0  0  0
    2.0701   -1.1104    0.0000 N   0  0  0  0  0  0  0  0  0  0  0  0
    1.3556   -1.5229    0.0000 C   0  0  0  0  0  0  0  0  0  0  0  0
    2.7845   -1.5229    0.0000 C   0  0  0  0  0  0  0  0  0  0  0  0
    3.4990   -1.1104    0.0000 O   0  0  0  0  0  0  0  0  0  0  0  0
    2.7845   -2.3479    0.0000 C   0  0  1  0  0  0  0  0  0  0  0  0
    3.4990   -2.7604    0.0000 C   0  0  0  0  0  0  0  0  0  0  0  0
    3.4990   -3.5854    0.0000 C   0  0  0  0  0  0  0  0  0  0  0  0
    2.7845   -3.9979    0.0000 C   0  0  1  0  0  0  0  0  0  0  0  0
    2.0701   -3.5854    0.0000 C   0  0  0  0  0  0  0  0  0  0  0  0
    2.0701   -2.7604    0.0000 C   0  0  0  0  0  0  0  0  0  0  0  0
    2.7845   -4.8229    0.0000 C   0  0  0  0  0  0  0  0  0  0  0  0
    3.4990   -5.2354    0.0000 O   0  0  0  0  0  0  0  0  0  0  0  0
    2.0701   -5.2354    0.0000 C   0  0  0  0  0  0  0  0  0  0  0  0
    2.0701   -6.0604    0.0000 C   0  0  0  0  0  0  0  0  0  0  0  0
    1.3556   -6.4729    0.0000 C   0  0  0  0  0  0  0  0  0  0  0  0
    0.6411   -6.0604    0.0000 C   0  0  0  0  0  0  0  0  0  0  0  0
   -0.0734   -6.4729    0.0000 F   0  0  0  0  0  0  0  0  0  0  0  0
    0.6411   -5.2354    0.0000 C   0  0  0  0  0  0  0  0  0  0  0  0
    1.3556   -4.8229    0.0000 C   0  0  0  0  0  0  0  0  0  0  0  0
  1  2  1  0  0  0  0
  2  3  1  0  0  0  0
  3  4  2  0  0  0  0
  4  5  1  0  0  0  0
  5  6  1  0  0  0  0
  6  7  1  0  0  0  0
  7  8  2  0  0  0  0
  8  9  1  0  0  0  0
  9 10  2  0  0  0  0
 10 11  1  0  0  0  0
 10 12  1  0  0  0  0
 12 13  2  0  0  0  0
  7 13  1  0  0  0  0
  4 14  1  0  0  0  0
 14 15  2  0  0  0  0
  2 15  1  0  0  0  0
 15 16  1  0  0  0  0
 16 17  1  0  0  0  0
 17 18  1  0  0  0  0
 18 19  1  0  0  0  0
 14 19  1  0  0  0  0
 18 20  1  0  0  0  0
 20 21  2  0  0  0  0
 22 20  1  1  0  0  0
 22 23  1  0  0  0  0
 23 24  1  0  0  0  0
 25 24  1  0  0  0  0
 25 26  1  0  0  0  0
 26 27  1  0  0  0  0
 22 27  1  0  0  0  0
 25 28  1  6  0  0  0
 28 29  2  0  0  0  0
 28 30  1  0  0  0  0
 30 31  2  0  0  0  0
 31 32  1  0  0  0  0
 32 33  2  0  0  0  0
 33 34  1  0  0  0  0
 33 35  1  0  0  0  0
 35 36  2  0  0  0  0
 30 36  1  0  0  0  0
M  END
> <ID>
CPD_880

$$$$
CPD_885
  Mrv1822 09091914012D          

 36 40  0  0  0  0            999 V2000
   -0.3984    0.7541    0.0000 C   0  0  0  0  0  0  0  0  0  0  0  0
   -0.1435   -0.0305    0.0000 N   0  0  0  0  0  0  0  0  0  0  0  0
   -0.6284   -0.6979    0.0000 N   0  0  0  0  0  0  0  0  0  0  0  0
   -0.1435   -1.3654    0.0000 C   0  0  0  0  0  0  0  0  0  0  0  0
   -0.3984   -2.1500    0.0000 C   0  0  0  0  0  0  0  0  0  0  0  0
   -1.2054   -2.3215    0.0000 O   0  0  0  0  0  0  0  0  0  0  0  0
   -1.4604   -3.1062    0.0000 C   0  0  0  0  0  0  0  0  0  0  0  0
   -0.9083   -3.7192    0.0000 C   0  0  0  0  0  0  0  0  0  0  0  0
   -1.1633   -4.5039    0.0000 C   0  0  0  0  0  0  0  0  0  0  0  0
   -1.9702   -4.6754    0.0000 C   0  0  0  0  0  0  0  0  0  0  0  0
   -2.2252   -5.4600    0.0000 F   0  0  0  0  0  0  0  0  0  0  0  0
   -2.5223   -4.0623    0.0000 C   0  0  0  0  0  0  0  0  0  0  0  0
   -2.2673   -3.2777    0.0000 C   0  0  0  0  0  0  0  0  0  0  0  0
    0.6411   -1.1104    0.0000 C   0  0  0  0  0  0  0  0  0  0  0  0
    0.6411   -0.2854    0.0000 C   0  0  0  0  0  0  0  0  0  0  0  0
    1.3556    0.1271    0.0000 C   0  0  0  0  0  0  0  0  0  0  0  0
    2.0701   -0.2854    0.0000 C   0  0  0  0  0  0  0  0  0  0  0  0
    2.0701   -1.1104    0.0000 N   0  0  0  0  0  0  0  0  0  0  0  0
    1.3556   -1.5229    0.0000 C   0  0  0  0  0  0  0  0  0  0  0  0
    2.7845   -1.5229    0.0000 C   0  0  0  0  0  0  0  0  0  0  0  0
    3.4990   -1.1104    0.0000 O   0  0  0  0  0  0  0  0  0  0  0  0
    2.7845   -2.3479    0.0000 C   0  0  0  0  0  0  0  0  0  0  0  0
    3.4990   -2.7604    0.0000 C   0  0  0  0  0  0  0  0  0  0  0  0
    3.4990   -3.5854    0.0000 C   0  0  0  0  0  0  0  0  0  0  0  0
    2.7845   -3.9979    0.0000 N   0  0  0  0  0  0  0  0  0  0  0  0
    2.0701   -3.5854    0.0000 C   0  0  0  0  0  0  0  0  0  0  0  0
    2.0701   -2.7604    0.0000 C   0  0  0  0  0  0  0  0  0  0  0  0
    2.7845   -4.8229    0.0000 C   0  0  0  0  0  0  0  0  0  0  0  0
    3.4990   -5.2354    0.0000 O   0  0  0  0  0  0  0  0  0  0  0  0
    2.0701   -5.2354    0.0000 C   0  0  0  0  0  0  0  0  0  0  0  0
    2.0701   -6.0604    0.0000 C   0  0  0  0  0  0  0  0  0  0  0  0
    1.3556   -6.4729    0.0000 C   0  0  0  0  0  0  0  0  0  0  0  0
    1.3556   -7.2979    0.0000 F   0  0  0  0  0  0  0  0  0  0  0  0
    0.6411   -6.0604    0.0000 C   0  0  0  0  0  0  0  0  0  0  0  0
    0.6411   -5.2354    0.0000 C   0  0  0  0  0  0  0  0  0  0  0  0
    1.3556   -4.8229    0.0000 C   0  0  0  0  0  0  0  0  0  0  0  0
  1  2  1  0  0  0  0
  2  3  1  0  0  0  0
  3  4  2  0  0  0  0
  4  5  1  0  0  0  0
  5  6  1  0  0  0  0
  6  7  1  0  0  0  0
  7  8  2  0  0  0  0
  8  9  1  0  0  0  0
  9 10  2  0  0  0  0
 10 11  1  0  0  0  0
 10 12  1  0  0  0  0
 12 13  2  0  0  0  0
  7 13  1  0  0  0  0
  4 14  1  0  0  0  0
 14 15  2  0  0  0  0
  2 15  1  0  0  0  0
 15 16  1  0  0  0  0
 16 17  1  0  0  0  0
 17 18  1  0  0  0  0
 18 19  1  0  0  0  0
 14 19  1  0  0  0  0
 18 20  1  0  0  0  0
 20 21  2  0  0  0  0
 20 22  1  0  0  0  0
 22 23  1  0  0  0  0
 23 24  1  0  0  0  0
 24 25  1  0  0  0  0
 25 26  1  0  0  0  0
 26 27  1  0  0  0  0
 22 27  1  0  0  0  0
 25 28  1  0  0  0  0
 28 29  2  0  0  0  0
 28 30  1  0  0  0  0
 30 31  2  0  0  0  0
 31 32  1  0  0  0  0
 32 33  1  0  0  0  0
 32 34  2  0  0  0  0
 34 35  1  0  0  0  0
 35 36  2  0  0  0  0
 30 36  1  0  0  0  0
M  END
> <ID>
CPD_885

$$$$
CPD_890
  Mrv1822 09091914012D          

 30 31  0  0  0  0            999 V2000
    3.7553   -5.2370    0.0000 C   0  0  0  0  0  0  0  0  0  0  0  0
    3.7553   -4.4120    0.0000 N   0  0  0  0  0  0  0  0  0  0  0  0
    3.0408   -3.9995    0.0000 C   0  0  0  0  0  0  0  0  0  0  0  0
    2.3264   -4.4120    0.0000 C   0  0  0  0  0  0  0  0  0  0  0  0
    1.6119   -3.9995    0.0000 C   0  0  0  0  0  0  0  0  0  0  0  0
    0.8582   -4.3350    0.0000 N   0  0  0  0  0  0  0  0  0  0  0  0
    0.3062   -3.7219    0.0000 O   0  0  0  0  0  0  0  0  0  0  0  0
    0.7187   -3.0075    0.0000 C   0  0  0  0  0  0  0  0  0  0  0  0
    0.3831   -2.2538    0.0000 C   0  0  0  0  0  0  0  0  0  0  0  0
   -0.4374   -2.1676    0.0000 O   0  0  0  0  0  0  0  0  0  0  0  0
   -0.7729   -1.4139    0.0000 C   0  0  0  0  0  0  0  0  0  0  0  0
   -1.5934   -1.3277    0.0000 C   0  0  0  0  0  0  0  0  0  0  0  0
   -1.9289   -0.5740    0.0000 C   0  0  0  0  0  0  0  0  0  0  0  0
   -1.4440    0.0935    0.0000 C   0  0  0  0  0  0  0  0  0  0  0  0
   -1.7796    0.8471    0.0000 C   0  0  0  0  0  0  0  0  0  0  0  0
   -0.6235    0.0072    0.0000 C   0  0  0  0  0  0  0  0  0  0  0  0
   -0.2880   -0.7465    0.0000 C   0  0  0  0  0  0  0  0  0  0  0  0
    0.5325   -0.8327    0.0000 C   0  0  0  0  0  0  0  0  0  0  0  0
    1.5257   -3.1790    0.0000 N   0  0  0  0  0  0  0  0  0  0  0  0
    4.4698   -3.9995    0.0000 C   0  0  0  0  0  0  0  0  0  0  0  0
    4.4698   -3.1745    0.0000 O   0  0  0  0  0  0  0  0  0  0  0  0
    5.1842   -4.4120    0.0000 C   0  0  0  0  0  0  0  0  0  0  0  0
    5.8987   -3.9995    0.0000 C   0  0  0  0  0  0  0  0  0  0  0  0
    6.6132   -4.4120    0.0000 C   0  0  0  0  0  0  0  0  0  0  0  0
    7.3277   -3.9995    0.0000 C   0  0  0  0  0  0  0  0  0  0  0  0
    8.0421   -4.4120    0.0000 C   0  0  0  0  0  0  0  0  0  0  0  0
    8.7566   -3.9995    0.0000 C   0  0  0  0  0  0  0  0  0  0  0  0
    9.4711   -4.4120    0.0000 C   0  0  0  0  0  0  0  0  0  0  0  0
   10.1855   -3.9995    0.0000 O   0  0  0  0  0  0  0  0  0  0  0  0
    9.4711   -5.2370    0.0000 O   0  0  0  0  0  0  0  0  0  0  0  0
  1  2  1  0  0  0  0
  2  3  1  0  0  0  0
  3  4  1  0  0  0  0
  4  5  1  0  0  0  0
  5  6  2  0  0  0  0
  6  7  1  0  0  0  0
  7  8  1  0  0  0  0
  8  9  1  0  0  0  0
  9 10  1  0  0  0  0
 10 11  1  0  0  0  0
 11 12  2  0  0  0  0
 12 13  1  0  0  0  0
 13 14  2  0  0  0  0
 14 15  1  0  0  0  0
 14 16  1  0  0  0  0
 16 17  2  0  0  0  0
 11 17  1  0  0  0  0
 17 18  1  0  0  0  0
  8 19  2  0  0  0  0
  5 19  1  0  0  0  0
  2 20  1  0  0  0  0
 20 21  2  0  0  0  0
 20 22  1  0  0  0  0
 22 23  1  0  0  0  0
 23 24  1  0  0  0  0
 24 25  1  0  0  0  0
 25 26  1  0  0  0  0
 26 27  1  0  0  0  0
 27 28  1  0  0  0  0
 28 29  1  0  0  0  0
 28 30  2  0  0  0  0
M  END
> <ID>
CPD_890

$$$$
CPD_895
  Mrv1822 09091914012D          

 31 33  0  0  0  0            999 V2000
   -1.8111   -9.1331    0.0000 C   0  0  0  0  0  0  0  0  0  0  0  0
   -1.8111   -8.3081    0.0000 C   0  0  0  0  0  0  0  0  0  0  0  0
   -1.0966   -7.8956    0.0000 C   0  0  0  0  0  0  0  0  0  0  0  0
   -1.0966   -7.0706    0.0000 O   0  0  0  0  0  0  0  0  0  0  0  0
   -0.3822   -6.6581    0.0000 C   0  0  0  0  0  0  0  0  0  0  0  0
   -0.3822   -5.8331    0.0000 C   0  0  0  0  0  0  0  0  0  0  0  0
    0.3323   -5.4206    0.0000 C   0  0  0  0  0  0  0  0  0  0  0  0
    1.0468   -5.8331    0.0000 C   0  0  0  0  0  0  0  0  0  0  0  0
    1.0468   -6.6581    0.0000 C   0  0  0  0  0  0  0  0  0  0  0  0
    0.3323   -7.0706    0.0000 C   0  0  0  0  0  0  0  0  0  0  0  0
    1.7613   -5.4206    0.0000 C   0  0  0  0  0  0  0  0  0  0  0  0
    1.7613   -4.5956    0.0000 O   0  0  0  0  0  0  0  0  0  0  0  0
    2.4757   -5.8331    0.0000 N   0  0  0  0  0  0  0  0  0  0  0  0
    2.4757   -6.6581    0.0000 C   0  0  0  0  0  0  0  0  0  0  0  0
    3.1902   -5.4206    0.0000 C   0  0  0  0  0  0  0  0  0  0  0  0
    3.9047   -5.8331    0.0000 C   0  0  0  0  0  0  0  0  0  0  0  0
    4.6191   -5.4206    0.0000 C   0  0  0  0  0  0  0  0  0  0  0  0
    4.7054   -4.6001    0.0000 N   0  0  0  0  0  0  0  0  0  0  0  0
    5.5124   -4.4286    0.0000 O   0  0  0  0  0  0  0  0  0  0  0  0
    5.9249   -5.1431    0.0000 C   0  0  0  0  0  0  0  0  0  0  0  0
    6.7453   -5.2293    0.0000 C   0  0  0  0  0  0  0  0  0  0  0  0
    7.2303   -4.5619    0.0000 O   0  0  0  0  0  0  0  0  0  0  0  0
    8.0507   -4.6481    0.0000 C   0  0  0  0  0  0  0  0  0  0  0  0
    8.5357   -3.9807    0.0000 C   0  0  0  0  0  0  0  0  0  0  0  0
    9.3561   -4.0669    0.0000 C   0  0  0  0  0  0  0  0  0  0  0  0
    9.6917   -4.8206    0.0000 C   0  0  0  0  0  0  0  0  0  0  0  0
   10.5122   -4.9068    0.0000 C   0  0  0  0  0  0  0  0  0  0  0  0
    9.2068   -5.4880    0.0000 C   0  0  0  0  0  0  0  0  0  0  0  0
    8.3863   -5.4018    0.0000 C   0  0  0  0  0  0  0  0  0  0  0  0
    7.9014   -6.0692    0.0000 C   0  0  0  0  0  0  0  0  0  0  0  0
    5.3728   -5.7562    0.0000 N   0  0  0  0  0  0  0  0  0  0  0  0
  1  2  1  0  0  0  0
  2  3  1  0  0  0  0
  3  4  1  0  0  0  0
  4  5  1  0  0  0  0
  5  6  2  0  0  0  0
  6  7  1  0  0  0  0
  7  8  2  0  0  0  0
  8  9  1  0  0  0  0
  9 10  2  0  0  0  0
  5 10  1  0  0  0  0
  8 11  1  0  0  0  0
 11 12  2  0  0  0  0
 11 13  1  0  0  0  0
 13 14  1  0  0  0  0
 13 15  1  0  0  0  0
 15 16  1  0  0  0  0
 16 17  1  0  0  0  0
 17 18  2  0  0  0  0
 18 19  1  0  0  0  0
 19 20  1  0  0  0  0
 20 21  1  0  0  0  0
 21 22  1  0  0  0  0
 22 23  1  0  0  0  0
 23 24  2  0  0  0  0
 24 25  1  0  0  0  0
 25 26  2  0  0  0  0
 26 27  1  0  0  0  0
 26 28  1  0  0  0  0
 28 29  2  0  0  0  0
 23 29  1  0  0  0  0
 29 30  1  0  0  0  0
 20 31  2  0  0  0  0
 17 31  1  0  0  0  0
M  END
> <ID>
CPD_895

$$$$
CPD_900
  Mrv1822 09091914012D          

 29 31  0  0  0  0            999 V2000
    2.1434   -3.7125    0.0000 C   0  0  0  0  0  0  0  0  0  0  0  0
    2.1434   -2.8875    0.0000 N   0  0  0  0  0  0  0  0  0  0  0  0
    1.4289   -2.4750    0.0000 C   0  0  0  0  0  0  0  0  0  0  0  0
    0.7145   -2.8875    0.0000 C   0  0  0  0  0  0  0  0  0  0  0  0
    0.0000   -2.4750    0.0000 C   0  0  0  0  0  0  0  0  0  0  0  0
   -0.7537   -2.8106    0.0000 N   0  0  0  0  0  0  0  0  0  0  0  0
   -1.3057   -2.1975    0.0000 O   0  0  0  0  0  0  0  0  0  0  0  0
   -0.8932   -1.4830    0.0000 C   0  0  0  0  0  0  0  0  0  0  0  0
   -1.2288   -0.7293    0.0000 C   0  0  0  0  0  0  0  0  0  0  0  0
   -2.0492   -0.6431    0.0000 O   0  0  0  0  0  0  0  0  0  0  0  0
   -2.3848    0.1106    0.0000 C   0  0  0  0  0  0  0  0  0  0  0  0
   -3.2053    0.1968    0.0000 C   0  0  0  0  0  0  0  0  0  0  0  0
   -3.5408    0.9505    0.0000 C   0  0  0  0  0  0  0  0  0  0  0  0
   -3.0559    1.6179    0.0000 C   0  0  0  0  0  0  0  0  0  0  0  0
   -3.3915    2.3716    0.0000 C   0  0  0  0  0  0  0  0  0  0  0  0
   -2.2354    1.5317    0.0000 C   0  0  0  0  0  0  0  0  0  0  0  0
   -1.8999    0.7780    0.0000 C   0  0  0  0  0  0  0  0  0  0  0  0
   -1.0794    0.6918    0.0000 C   0  0  0  0  0  0  0  0  0  0  0  0
   -0.0862   -1.6545    0.0000 N   0  0  0  0  0  0  0  0  0  0  0  0
    2.8579   -2.4750    0.0000 C   0  0  0  0  0  0  0  0  0  0  0  0
    2.8579   -1.6500    0.0000 O   0  0  0  0  0  0  0  0  0  0  0  0
    3.5724   -2.8875    0.0000 C   0  0  0  0  0  0  0  0  0  0  0  0
    4.2868   -2.4750    0.0000 C   0  0  0  0  0  0  0  0  0  0  0  0
    5.0013   -2.8875    0.0000 C   0  0  0  0  0  0  0  0  0  0  0  0
    5.7158   -2.4750    0.0000 N   0  0  0  0  0  0  0  0  0  0  0  0
    5.0013   -3.7125    0.0000 C   0  0  0  0  0  0  0  0  0  0  0  0
    4.2868   -4.1250    0.0000 C   0  0  0  0  0  0  0  0  0  0  0  0
    4.2868   -4.9500    0.0000 N   0  0  0  0  0  0  0  0  0  0  0  0
    3.5724   -3.7125    0.0000 C   0  0  0  0  0  0  0  0  0  0  0  0
  1  2  1  0  0  0  0
  2  3  1  0  0  0  0
  3  4  1  0  0  0  0
  4  5  1  0  0  0  0
  5  6  2  0  0  0  0
  6  7  1  0  0  0  0
  7  8  1  0  0  0  0
  8  9  1  0  0  0  0
  9 10  1  0  0  0  0
 10 11  1  0  0  0  0
 11 12  2  0  0  0  0
 12 13  1  0  0  0  0
 13 14  2  0  0  0  0
 14 15  1  0  0  0  0
 14 16  1  0  0  0  0
 16 17  2  0  0  0  0
 11 17  1  0  0  0  0
 17 18  1  0  0  0  0
  8 19  2  0  0  0  0
  5 19  1  0  0  0  0
  2 20  1  0  0  0  0
 20 21  2  0  0  0  0
 20 22  1  0  0  0  0
 22 23  2  0  0  0  0
 23 24  1  0  0  0  0
 24 25  1  0  0  0  0
 24 26  2  0  0  0  0
 26 27  1  0  0  0  0
 27 28  1  0  0  0  0
 27 29  2  0  0  0  0
 22 29  1  0  0  0  0
M  END
> <ID>
CPD_900

$$$$
CPD_905
  Mrv1822 09091914012D          

 32 35  0  0  0  0            999 V2000
   -0.3984    0.7541    0.0000 C   0  0  0  0  0  0  0  0  0  0  0  0
   -0.1435   -0.0305    0.0000 N   0  0  0  0  0  0  0  0  0  0  0  0
   -0.6284   -0.6979    0.0000 N   0  0  0  0  0  0  0  0  0  0  0  0
   -0.1435   -1.3654    0.0000 C   0  0  0  0  0  0  0  0  0  0  0  0
   -0.3984   -2.1500    0.0000 C   0  0  0  0  0  0  0  0  0  0  0  0
   -1.2054   -2.3215    0.0000 O   0  0  0  0  0  0  0  0  0  0  0  0
   -1.4604   -3.1062    0.0000 C   0  0  0  0  0  0  0  0  0  0  0  0
   -2.2673   -3.2777    0.0000 C   0  0  0  0  0  0  0  0  0  0  0  0
   -2.5223   -4.0623    0.0000 C   0  0  0  0  0  0  0  0  0  0  0  0
   -3.3292   -4.2338    0.0000 C   0  0  0  0  0  0  0  0  0  0  0  0
   -3.8813   -3.6207    0.0000 C   0  0  0  0  0  0  0  0  0  0  0  0
   -3.6263   -2.8361    0.0000 C   0  0  0  0  0  0  0  0  0  0  0  0
   -2.8194   -2.6646    0.0000 C   0  0  0  0  0  0  0  0  0  0  0  0
   -2.5644   -1.8800    0.0000 F   0  0  0  0  0  0  0  0  0  0  0  0
    0.6411   -1.1104    0.0000 C   0  0  0  0  0  0  0  0  0  0  0  0
    0.6411   -0.2854    0.0000 C   0  0  0  0  0  0  0  0  0  0  0  0
    1.3556    0.1271    0.0000 C   0  0  0  0  0  0  0  0  0  0  0  0
    2.0701   -0.2854    0.0000 C   0  0  0  0  0  0  0  0  0  0  0  0
    2.0701   -1.1104    0.0000 N   0  0  0  0  0  0  0  0  0  0  0  0
    1.3556   -1.5229    0.0000 C   0  0  0  0  0  0  0  0  0  0  0  0
    2.7845   -1.5229    0.0000 C   0  0  0  0  0  0  0  0  0  0  0  0
    3.4990   -1.1104    0.0000 O   0  0  0  0  0  0  0  0  0  0  0  0
    2.7845   -2.3479    0.0000 C   0  0  0  0  0  0  0  0  0  0  0  0
    3.4990   -2.7604    0.0000 O   0  0  0  0  0  0  0  0  0  0  0  0
    4.2135   -2.3479    0.0000 C   0  0  0  0  0  0  0  0  0  0  0  0
    4.2135   -1.5229    0.0000 C   0  0  0  0  0  0  0  0  0  0  0  0
    4.9279   -1.1104    0.0000 C   0  0  0  0  0  0  0  0  0  0  0  0
    4.9279   -0.2854    0.0000 F   0  0  0  0  0  0  0  0  0  0  0  0
    5.6424   -1.5229    0.0000 C   0  0  0  0  0  0  0  0  0  0  0  0
    6.3569   -1.1104    0.0000 F   0  0  0  0  0  0  0  0  0  0  0  0
    5.6424   -2.3479    0.0000 C   0  0  0  0  0  0  0  0  0  0  0  0
    4.9279   -2.7604    0.0000 C   0  0  0  0  0  0  0  0  0  0  0  0
  1  2  1  0  0  0  0
  2  3  1  0  0  0  0
  3  4  2  0  0  0  0
  4  5  1  0  0  0  0
  5  6  1  0  0  0  0
  6  7  1  0  0  0  0
  7  8  1  0  0  0  0
  8  9  2  0  0  0  0
  9 10  1  0  0  0  0
 10 11  2  0  0  0  0
 11 12  1  0  0  0  0
 12 13  2  0  0  0  0
  8 13  1  0  0  0  0
 13 14  1  0  0  0  0
  4 15  1  0  0  0  0
 15 16  2  0  0  0  0
  2 16  1  0  0  0  0
 16 17  1  0  0  0  0
 17 18  1  0  0  0  0
 18 19  1  0  0  0  0
 19 20  1  0  0  0  0
 15 20  1  0  0  0  0
 19 21  1  0  0  0  0
 21 22  2  0  0  0  0
 21 23  1  0  0  0  0
 23 24  1  0  0  0  0
 24 25  1  0  0  0  0
 25 26  2  0  0  0  0
 26 27  1  0  0  0  0
 27 28  1  0  0  0  0
 27 29  2  0  0  0  0
 29 30  1  0  0  0  0
 29 31  1  0  0  0  0
 31 32  2  0  0  0  0
 25 32  1  0  0  0  0
M  END
> <ID>
CPD_905

$$$$
CPD_910
  Mrv1822 09091914012D          

 30 32  0  0  1  0            999 V2000
    0.7145   -4.5375    0.0000 C   0  0  0  0  0  0  0  0  0  0  0  0
    0.7145   -3.7125    0.0000 C   0  0  2  0  0  0  0  0  0  0  0  0
    0.0000   -3.3000    0.0000 C   0  0  0  0  0  0  0  0  0  0  0  0
   -0.7145   -3.7125    0.0000 C   0  0  0  0  0  0  0  0  0  0  0  0
   -1.4289   -3.3000    0.0000 C   0  0  0  0  0  0  0  0  0  0  0  0
   -2.1434   -3.7125    0.0000 O   0  0  0  0  0  0  0  0  0  0  0  0
   -1.4289   -2.4750    0.0000 O   0  0  0  0  0  0  0  0  0  0  0  0
    1.4289   -3.3000    0.0000 C   0  0  0  0  0  0  0  0  0  0  0  0
    2.1434   -3.7125    0.0000 C   0  0  0  0  0  0  0  0  0  0  0  0
    2.1434   -4.5375    0.0000 O   0  0  0  0  0  0  0  0  0  0  0  0
    2.8579   -3.3000    0.0000 N   0  0  0  0  0  0  0  0  0  0  0  0
    2.8579   -2.4750    0.0000 C   0  0  0  0  0  0  0  0  0  0  0  0
    3.5724   -2.0625    0.0000 C   0  0  0  0  0  0  0  0  0  0  0  0
    4.2868   -2.4750    0.0000 C   0  0  0  0  0  0  0  0  0  0  0  0
    4.2868   -3.3000    0.0000 C   0  0  0  0  0  0  0  0  0  0  0  0
    3.5724   -3.7125    0.0000 C   0  0  0  0  0  0  0  0  0  0  0  0
    5.0714   -3.5549    0.0000 C   0  0  0  0  0  0  0  0  0  0  0  0
    5.3264   -4.3396    0.0000 C   0  0  0  0  0  0  0  0  0  0  0  0
    4.7744   -4.9527    0.0000 O   0  0  0  0  0  0  0  0  0  0  0  0
    5.0293   -5.7373    0.0000 C   0  0  0  0  0  0  0  0  0  0  0  0
    5.8363   -5.9088    0.0000 C   0  0  0  0  0  0  0  0  0  0  0  0
    6.3883   -5.2957    0.0000 C   0  0  0  0  0  0  0  0  0  0  0  0
    7.1953   -5.4672    0.0000 C   0  0  0  0  0  0  0  0  0  0  0  0
    7.4502   -6.2519    0.0000 C   0  0  0  0  0  0  0  0  0  0  0  0
    6.8982   -6.8650    0.0000 C   0  0  0  0  0  0  0  0  0  0  0  0
    6.0912   -6.6934    0.0000 C   0  0  0  0  0  0  0  0  0  0  0  0
    5.5392   -7.3065    0.0000 F   0  0  0  0  0  0  0  0  0  0  0  0
    5.5564   -2.8875    0.0000 N   0  0  0  0  0  0  0  0  0  0  0  0
    5.0714   -2.2201    0.0000 N   0  0  0  0  0  0  0  0  0  0  0  0
    5.3264   -1.4354    0.0000 C   0  0  0  0  0  0  0  0  0  0  0  0
  2  1  1  6  0  0  0
  2  3  1  0  0  0  0
  3  4  1  0  0  0  0
  4  5  1  0  0  0  0
  5  6  1  0  0  0  0
  5  7  2  0  0  0  0
  2  8  1  0  0  0  0
  8  9  1  0  0  0  0
  9 10  2  0  0  0  0
  9 11  1  0  0  0  0
 11 12  1  0  0  0  0
 12 13  1  0  0  0  0
 13 14  1  0  0  0  0
 14 15  2  0  0  0  0
 15 16  1  0  0  0  0
 11 16  1  0  0  0  0
 15 17  1  0  0  0  0
 17 18  1  0  0  0  0
 18 19  1  0  0  0  0
 19 20  1  0  0  0  0
 20 21  1  0  0  0  0
 21 22  2  0  0  0  0
 22 23  1  0  0  0  0
 23 24  2  0  0  0  0
 24 25  1  0  0  0  0
 25 26  2  0  0  0  0
 21 26  1  0  0  0  0
 26 27  1  0  0  0  0
 17 28  2  0  0  0  0
 28 29  1  0  0  0  0
 14 29  1  0  0  0  0
 29 30  1  0  0  0  0
M  END
> <ID>
CPD_910

$$$$
CPD_915
  Mrv1822 09091914012D          

 22 23  0  0  0  0            999 V2000
   -2.7171   -2.9400    0.0000 C   0  0  0  0  0  0  0  0  0  0  0  0
   -1.8966   -2.8538    0.0000 O   0  0  0  0  0  0  0  0  0  0  0  0
   -1.4117   -3.5212    0.0000 C   0  0  0  0  0  0  0  0  0  0  0  0
   -0.5912   -3.4350    0.0000 C   0  0  0  0  0  0  0  0  0  0  0  0
   -0.1787   -2.7205    0.0000 N   0  0  0  0  0  0  0  0  0  0  0  0
    0.6282   -2.8920    0.0000 O   0  0  0  0  0  0  0  0  0  0  0  0
    0.7145   -3.7125    0.0000 C   0  0  0  0  0  0  0  0  0  0  0  0
    1.4289   -4.1250    0.0000 C   0  0  0  0  0  0  0  0  0  0  0  0
    2.1434   -3.7125    0.0000 C   0  0  0  0  0  0  0  0  0  0  0  0
    2.8579   -4.1250    0.0000 N   0  0  0  0  0  0  0  0  0  0  0  0
    3.5724   -3.7125    0.0000 C   0  0  0  0  0  0  0  0  0  0  0  0
    3.5724   -2.8875    0.0000 O   0  0  0  0  0  0  0  0  0  0  0  0
    4.2868   -4.1250    0.0000 C   0  0  0  0  0  0  0  0  0  0  0  0
    5.0013   -3.7125    0.0000 C   0  0  0  0  0  0  0  0  0  0  0  0
    5.7158   -4.1250    0.0000 C   0  0  0  0  0  0  0  0  0  0  0  0
    6.4302   -3.7125    0.0000 C   0  0  0  0  0  0  0  0  0  0  0  0
    7.1447   -4.1250    0.0000 C   0  0  0  0  0  0  0  0  0  0  0  0
    7.1447   -4.9500    0.0000 C   0  0  0  0  0  0  0  0  0  0  0  0
    7.8592   -5.3625    0.0000 C   0  0  0  0  0  0  0  0  0  0  0  0
    6.4302   -5.3625    0.0000 C   0  0  0  0  0  0  0  0  0  0  0  0
    5.7158   -4.9500    0.0000 C   0  0  0  0  0  0  0  0  0  0  0  0
   -0.0392   -4.0481    0.0000 N   0  0  0  0  0  0  0  0  0  0  0  0
  1  2  1  0  0  0  0
  2  3  1  0  0  0  0
  3  4  1  0  0  0  0
  4  5  2  0  0  0  0
  5  6  1  0  0  0  0
  6  7  1  0  0  0  0
  7  8  1  0  0  0  0
  8  9  1  0  0  0  0
  9 10  1  0  0  0  0
 10 11  1  0  0  0  0
 11 12  2  0  0  0  0
 11 13  1  0  0  0  0
 13 14  1  0  0  0  0
 14 15  1  0  0  0  0
 15 16  2  0  0  0  0
 16 17  1  0  0  0  0
 17 18  2  0  0  0  0
 18 19  1  0  0  0  0
 18 20  1  0  0  0  0
 20 21  2  0  0  0  0
 15 21  1  0  0  0  0
  7 22  2  0  0  0  0
  4 22  1  0  0  0  0
M  END
> <ID>
CPD_915

$$$$
CPD_920
  Mrv1822 09091914012D          

 26 28  0  0  0  0            999 V2000
    5.6091    0.6402    0.0000 C   0  0  0  0  0  0  0  0  0  0  0  0
    5.6091   -0.1848    0.0000 C   0  0  0  0  0  0  0  0  0  0  0  0
    4.8946   -0.5973    0.0000 C   0  0  0  0  0  0  0  0  0  0  0  0
    4.8946   -1.4223    0.0000 C   0  0  0  0  0  0  0  0  0  0  0  0
    5.5620   -1.9072    0.0000 C   0  0  0  0  0  0  0  0  0  0  0  0
    6.3467   -1.6523    0.0000 C   0  0  0  0  0  0  0  0  0  0  0  0
    5.3071   -2.6919    0.0000 S   0  0  0  0  0  0  0  0  0  0  0  0
    4.4821   -2.6919    0.0000 C   0  0  0  0  0  0  0  0  0  0  0  0
    3.9972   -3.3593    0.0000 N   0  0  0  0  0  0  0  0  0  0  0  0
    4.2272   -1.9072    0.0000 C   0  0  0  0  0  0  0  0  0  0  0  0
    3.4425   -1.6523    0.0000 C   0  0  0  0  0  0  0  0  0  0  0  0
    2.8294   -2.2043    0.0000 O   0  0  0  0  0  0  0  0  0  0  0  0
    3.2710   -0.8453    0.0000 N   0  0  0  0  0  0  0  0  0  0  0  0
    2.4864   -0.5904    0.0000 C   0  0  0  0  0  0  0  0  0  0  0  0
    2.3149    0.2166    0.0000 C   0  0  0  0  0  0  0  0  0  0  0  0
    2.9279    0.7686    0.0000 C   0  0  0  0  0  0  0  0  0  0  0  0
    2.7564    1.5756    0.0000 C   0  0  0  0  0  0  0  0  0  0  0  0
    3.3695    2.1276    0.0000 N   0  0  0  0  0  0  0  0  0  0  0  0
    3.1980    2.9346    0.0000 C   0  0  0  0  0  0  0  0  0  0  0  0
    3.8111    3.4866    0.0000 C   0  0  0  0  0  0  0  0  0  0  0  0
    4.5957    3.2317    0.0000 C   0  0  0  0  0  0  0  0  0  0  0  0
    4.7672    2.4247    0.0000 C   0  0  0  0  0  0  0  0  0  0  0  0
    5.5519    2.1698    0.0000 C   0  0  0  0  0  0  0  0  0  0  0  0
    4.1541    1.8727    0.0000 C   0  0  0  0  0  0  0  0  0  0  0  0
    3.7126    0.5137    0.0000 C   0  0  0  0  0  0  0  0  0  0  0  0
    3.8841   -0.2933    0.0000 C   0  0  0  0  0  0  0  0  0  0  0  0
  1  2  1  0  0  0  0
  2  3  1  0  0  0  0
  3  4  1  0  0  0  0
  4  5  2  0  0  0  0
  5  6  1  0  0  0  0
  5  7  1  0  0  0  0
  7  8  1  0  0  0  0
  8  9  1  0  0  0  0
  8 10  2  0  0  0  0
  4 10  1  0  0  0  0
 10 11  1  0  0  0  0
 11 12  2  0  0  0  0
 11 13  1  0  0  0  0
 13 14  1  0  0  0  0
 14 15  1  0  0  0  0
 15 16  1  0  0  0  0
 16 17  1  0  0  0  0
 17 18  1  0  0  0  0
 18 19  1  0  0  0  0
 19 20  1  0  0  0  0
 20 21  1  0  0  0  0
 21 22  1  0  0  0  0
 22 23  1  0  0  0  0
 22 24  1  0  0  0  0
 18 24  1  0  0  0  0
 16 25  1  0  0  0  0
 25 26  1  0  0  0  0
 13 26  1  0  0  0  0
M  END
> <ID>
CPD_920

$$$$
CPD_925
  Mrv1822 09091914012D          

 29 32  0  0  0  0            999 V2000
    1.3222   -0.0616    0.0000 C   0  0  0  0  0  0  0  0  0  0  0  0
    2.0367   -0.4741    0.0000 N   0  0  0  0  0  0  0  0  0  0  0  0
    2.7512   -0.0616    0.0000 C   0  0  0  0  0  0  0  0  0  0  0  0
    2.7512    0.7634    0.0000 C   0  0  0  0  0  0  0  0  0  0  0  0
    2.0367    1.1759    0.0000 C   0  0  0  0  0  0  0  0  0  0  0  0
    2.0367    2.0009    0.0000 C   0  0  0  0  0  0  0  0  0  0  0  0
    2.7512    2.4134    0.0000 C   0  0  0  0  0  0  0  0  0  0  0  0
    3.4656    2.0009    0.0000 C   0  0  0  0  0  0  0  0  0  0  0  0
    3.4656    1.1759    0.0000 C   0  0  0  0  0  0  0  0  0  0  0  0
    2.0367   -1.2991    0.0000 C   0  0  0  0  0  0  0  0  0  0  0  0
    2.7041   -1.7840    0.0000 C   0  0  0  0  0  0  0  0  0  0  0  0
    2.4492   -2.5687    0.0000 C   0  0  0  0  0  0  0  0  0  0  0  0
    1.6242   -2.5687    0.0000 N   0  0  0  0  0  0  0  0  0  0  0  0
    1.3693   -1.7840    0.0000 C   0  0  0  0  0  0  0  0  0  0  0  0
    1.1393   -3.2361    0.0000 C   0  0  0  0  0  0  0  0  0  0  0  0
    1.4748   -3.9898    0.0000 O   0  0  0  0  0  0  0  0  0  0  0  0
    0.3188   -3.1499    0.0000 C   0  0  0  0  0  0  0  0  0  0  0  0
   -0.1661   -3.8173    0.0000 C   0  0  0  0  0  0  0  0  0  0  0  0
   -0.9866   -3.7311    0.0000 C   0  0  0  0  0  0  0  0  0  0  0  0
   -1.3222   -2.9774    0.0000 C   0  0  0  0  0  0  0  0  0  0  0  0
   -0.8372   -2.3099    0.0000 C   0  0  0  0  0  0  0  0  0  0  0  0
   -0.0168   -2.3962    0.0000 C   0  0  0  0  0  0  0  0  0  0  0  0
   -2.1426   -2.8911    0.0000 N   0  0  0  0  0  0  0  0  0  0  0  0
   -2.6947   -3.5042    0.0000 C   0  0  0  0  0  0  0  0  0  0  0  0
   -2.5231   -4.3112    0.0000 C   0  0  0  0  0  0  0  0  0  0  0  0
   -3.4483   -3.1687    0.0000 C   0  0  0  0  0  0  0  0  0  0  0  0
   -3.3621   -2.3482    0.0000 C   0  0  0  0  0  0  0  0  0  0  0  0
   -2.5551   -2.1767    0.0000 C   0  0  0  0  0  0  0  0  0  0  0  0
   -2.2196   -1.4230    0.0000 C   0  0  0  0  0  0  0  0  0  0  0  0
  1  2  1  0  0  0  0
  2  3  1  0  0  0  0
  3  4  1  0  0  0  0
  4  5  2  0  0  0  0
  5  6  1  0  0  0  0
  6  7  2  0  0  0  0
  7  8  1  0  0  0  0
  8  9  2  0  0  0  0
  4  9  1  0  0  0  0
  2 10  1  0  0  0  0
 10 11  1  0  0  0  0
 11 12  1  0  0  0  0
 12 13  1  0  0  0  0
 13 14  1  0  0  0  0
 10 14  1  0  0  0  0
 13 15  1  0  0  0  0
 15 16  2  0  0  0  0
 15 17  1  0  0  0  0
 17 18  2  0  0  0  0
 18 19  1  0  0  0  0
 19 20  2  0  0  0  0
 20 21  1  0  0  0  0
 21 22  2  0  0  0  0
 17 22  1  0  0  0  0
 20 23  1  0  0  0  0
 23 24  1  0  0  0  0
 24 25  1  0  0  0  0
 24 26  2  0  0  0  0
 26 27  1  0  0  0  0
 27 28  2  0  0  0  0
 23 28  1  0  0  0  0
 28 29  1  0  0  0  0
M  END
> <ID>
CPD_925

$$$$
CPD_930
  Mrv1822 09091914012D          

 33 37  0  0  0  0            999 V2000
   -5.0307   -1.5881    0.0000 C   0  0  0  0  0  0  0  0  0  0  0  0
   -5.5156   -0.9207    0.0000 N   0  0  0  0  0  0  0  0  0  0  0  0
   -6.3361   -1.0069    0.0000 C   0  0  0  0  0  0  0  0  0  0  0  0
   -6.6716   -1.7606    0.0000 C   0  0  0  0  0  0  0  0  0  0  0  0
   -6.1867   -2.4280    0.0000 C   0  0  0  0  0  0  0  0  0  0  0  0
   -6.5223   -3.1817    0.0000 C   0  0  0  0  0  0  0  0  0  0  0  0
   -7.3427   -3.2679    0.0000 C   0  0  0  0  0  0  0  0  0  0  0  0
   -7.8277   -2.6005    0.0000 C   0  0  0  0  0  0  0  0  0  0  0  0
   -7.4921   -1.8468    0.0000 C   0  0  0  0  0  0  0  0  0  0  0  0
   -5.1800   -0.1670    0.0000 C   0  0  0  0  0  0  0  0  0  0  0  0
   -5.5925    0.5475    0.0000 C   0  0  0  0  0  0  0  0  0  0  0  0
   -5.0405    1.1606    0.0000 C   0  0  0  0  0  0  0  0  0  0  0  0
   -4.2868    0.8250    0.0000 N   0  0  0  0  0  0  0  0  0  0  0  0
   -4.3731    0.0045    0.0000 C   0  0  0  0  0  0  0  0  0  0  0  0
   -3.5724    1.2375    0.0000 C   0  0  0  0  0  0  0  0  0  0  0  0
   -3.5724    2.0625    0.0000 O   0  0  0  0  0  0  0  0  0  0  0  0
   -2.8579    0.8250    0.0000 C   0  0  0  0  0  0  0  0  0  0  0  0
   -2.1434    1.2375    0.0000 C   0  0  0  0  0  0  0  0  0  0  0  0
   -2.1434    2.0625    0.0000 C   0  0  0  0  0  0  0  0  0  0  0  0
   -1.4289    0.8250    0.0000 N   0  0  0  0  0  0  0  0  0  0  0  0
   -1.4289    0.0000    0.0000 C   0  0  0  0  0  0  0  0  0  0  0  0
   -2.1434   -0.4125    0.0000 N   0  0  0  0  0  0  0  0  0  0  0  0
   -2.8579    0.0000    0.0000 C   0  0  0  0  0  0  0  0  0  0  0  0
   -0.7145   -0.4125    0.0000 N   0  0  0  0  0  0  0  0  0  0  0  0
   -0.7145   -1.2375    0.0000 C   0  0  0  0  0  0  0  0  0  0  0  0
    0.0000   -1.6500    0.0000 C   0  0  0  0  0  0  0  0  0  0  0  0
    0.7145   -1.2375    0.0000 C   0  0  0  0  0  0  0  0  0  0  0  0
    0.7145   -0.4125    0.0000 C   0  0  0  0  0  0  0  0  0  0  0  0
    0.0000   -0.0000    0.0000 C   0  0  0  0  0  0  0  0  0  0  0  0
    1.4289   -0.0000    0.0000 C   0  0  0  0  0  0  0  0  0  0  0  0
    2.1434   -0.4125    0.0000 C   0  0  0  0  0  0  0  0  0  0  0  0
    2.1434   -1.2375    0.0000 C   0  0  0  0  0  0  0  0  0  0  0  0
    1.4289   -1.6500    0.0000 C   0  0  0  0  0  0  0  0  0  0  0  0
  1  2  1  0  0  0  0
  2  3  1  0  0  0  0
  3  4  1  0  0  0  0
  4  5  2  0  0  0  0
  5  6  1  0  0  0  0
  6  7  2  0  0  0  0
  7  8  1  0  0  0  0
  8  9  2  0  0  0  0
  4  9  1  0  0  0  0
  2 10  1  0  0  0  0
 10 11  1  0  0  0  0
 11 12  1  0  0  0  0
 12 13  1  0  0  0  0
 13 14  1  0  0  0  0
 10 14  1  0  0  0  0
 13 15  1  0  0  0  0
 15 16  2  0  0  0  0
 15 17  1  0  0  0  0
 17 18  2  0  0  0  0
 18 19  1  0  0  0  0
 18 20  1  0  0  0  0
 20 21  2  0  0  0  0
 21 22  1  0  0  0  0
 22 23  2  0  0  0  0
 17 23  1  0  0  0  0
 21 24  1  0  0  0  0
 24 25  1  0  0  0  0
 25 26  1  0  0  0  0
 26 27  1  0  0  0  0
 27 28  2  0  0  0  0
 28 29  1  0  0  0  0
 24 29  1  0  0  0  0
 28 30  1  0  0  0  0
 30 31  2  0  0  0  0
 31 32  1  0  0  0  0
 32 33  2  0  0  0  0
 27 33  1  0  0  0  0
M  END
> <ID>
CPD_930

$$$$
CPD_935
  Mrv1822 09091914012D          

 28 29  0  0  0  0            999 V2000
    4.0540   -8.0792    0.0000 C   0  0  0  0  0  0  0  0  0  0  0  0
    4.0540   -7.2542    0.0000 C   0  0  0  0  0  0  0  0  0  0  0  0
    3.3396   -6.8417    0.0000 C   0  0  0  0  0  0  0  0  0  0  0  0
    2.6251   -7.2542    0.0000 N   0  0  0  0  0  0  0  0  0  0  0  0
    1.9106   -6.8417    0.0000 C   0  0  0  0  0  0  0  0  0  0  0  0
    1.9106   -6.0167    0.0000 O   0  0  0  0  0  0  0  0  0  0  0  0
    1.1962   -7.2542    0.0000 O   0  0  0  0  0  0  0  0  0  0  0  0
    0.4817   -6.8417    0.0000 C   0  0  0  0  0  0  0  0  0  0  0  0
   -0.2328   -6.4292    0.0000 C   0  0  0  0  0  0  0  0  0  0  0  0
    0.0692   -7.5562    0.0000 C   0  0  0  0  0  0  0  0  0  0  0  0
    0.8942   -6.1272    0.0000 C   0  0  0  0  0  0  0  0  0  0  0  0
    4.7685   -6.8417    0.0000 C   0  0  0  0  0  0  0  0  0  0  0  0
    5.4830   -7.2542    0.0000 C   0  0  0  0  0  0  0  0  0  0  0  0
    5.4830   -8.0792    0.0000 O   0  0  0  0  0  0  0  0  0  0  0  0
    6.1974   -6.8417    0.0000 N   0  0  0  0  0  0  0  0  0  0  0  0
    6.2837   -6.0212    0.0000 C   0  0  0  0  0  0  0  0  0  0  0  0
    7.0907   -5.8497    0.0000 C   0  0  0  0  0  0  0  0  0  0  0  0
    7.5032   -6.5642    0.0000 C   0  0  0  0  0  0  0  0  0  0  0  0
    6.9511   -7.1773    0.0000 C   0  0  0  0  0  0  0  0  0  0  0  0
    8.3236   -6.6504    0.0000 N   0  0  0  0  0  0  0  0  0  0  0  0
    8.6592   -7.4041    0.0000 C   0  0  0  0  0  0  0  0  0  0  0  0
    8.8086   -5.9830    0.0000 C   0  0  0  0  0  0  0  0  0  0  0  0
    9.6290   -6.0692    0.0000 C   0  0  0  0  0  0  0  0  0  0  0  0
   10.1140   -5.4018    0.0000 C   0  0  0  0  0  0  0  0  0  0  0  0
   10.9344   -5.4880    0.0000 C   0  0  0  0  0  0  0  0  0  0  0  0
   11.2700   -6.2417    0.0000 C   0  0  0  0  0  0  0  0  0  0  0  0
   10.7851   -6.9091    0.0000 C   0  0  0  0  0  0  0  0  0  0  0  0
    9.9646   -6.8229    0.0000 C   0  0  0  0  0  0  0  0  0  0  0  0
  1  2  1  0  0  0  0
  2  3  1  0  0  0  0
  3  4  1  0  0  0  0
  4  5  1  0  0  0  0
  5  6  2  0  0  0  0
  5  7  1  0  0  0  0
  7  8  1  0  0  0  0
  8  9  1  0  0  0  0
  8 10  1  0  0  0  0
  8 11  1  0  0  0  0
  2 12  1  0  0  0  0
 12 13  1  0  0  0  0
 13 14  2  0  0  0  0
 13 15  1  0  0  0  0
 15 16  1  0  0  0  0
 16 17  1  0  0  0  0
 17 18  1  0  0  0  0
 18 19  1  0  0  0  0
 15 19  1  0  0  0  0
 18 20  1  0  0  0  0
 20 21  1  0  0  0  0
 20 22  1  0  0  0  0
 22 23  1  0  0  0  0
 23 24  2  0  0  0  0
 24 25  1  0  0  0  0
 25 26  2  0  0  0  0
 26 27  1  0  0  0  0
 27 28  2  0  0  0  0
 23 28  1  0  0  0  0
M  END
> <ID>
CPD_935

$$$$
CPD_940
  Mrv1822 09091914012D          

 30 34  0  0  0  0            999 V2000
    6.6045    3.3337    0.0000 C   0  0  0  0  0  0  0  0  0  0  0  0
    6.1196    2.6663    0.0000 N   0  0  0  0  0  0  0  0  0  0  0  0
    6.4551    1.9126    0.0000 C   0  0  0  0  0  0  0  0  0  0  0  0
    7.2756    1.8264    0.0000 C   0  0  0  0  0  0  0  0  0  0  0  0
    7.7605    2.4938    0.0000 C   0  0  0  0  0  0  0  0  0  0  0  0
    8.5810    2.4076    0.0000 C   0  0  0  0  0  0  0  0  0  0  0  0
    8.9166    1.6539    0.0000 C   0  0  0  0  0  0  0  0  0  0  0  0
    8.4317    0.9865    0.0000 C   0  0  0  0  0  0  0  0  0  0  0  0
    7.6112    1.0727    0.0000 C   0  0  0  0  0  0  0  0  0  0  0  0
    5.2991    2.7525    0.0000 C   0  0  0  0  0  0  0  0  0  0  0  0
    4.8866    3.4670    0.0000 C   0  0  0  0  0  0  0  0  0  0  0  0
    4.0796    3.2955    0.0000 C   0  0  0  0  0  0  0  0  0  0  0  0
    3.9934    2.4750    0.0000 N   0  0  0  0  0  0  0  0  0  0  0  0
    4.7471    2.1394    0.0000 C   0  0  0  0  0  0  0  0  0  0  0  0
    3.2789    2.0625    0.0000 C   0  0  0  0  0  0  0  0  0  0  0  0
    2.5645    2.4750    0.0000 O   0  0  0  0  0  0  0  0  0  0  0  0
    3.2789    1.2375    0.0000 C   0  0  0  0  0  0  0  0  0  0  0  0
    3.9934    0.8250    0.0000 C   0  0  0  0  0  0  0  0  0  0  0  0
    4.7079    1.2375    0.0000 Cl  0  0  0  0  0  0  0  0  0  0  0  0
    3.9934    0.0000    0.0000 C   0  0  0  0  0  0  0  0  0  0  0  0
    3.2789   -0.4125    0.0000 N   0  0  0  0  0  0  0  0  0  0  0  0
    2.5645    0.0000    0.0000 C   0  0  0  0  0  0  0  0  0  0  0  0
    2.5645    0.8250    0.0000 C   0  0  0  0  0  0  0  0  0  0  0  0
    1.7798    1.0799    0.0000 C   0  0  0  0  0  0  0  0  0  0  0  0
    1.5249    1.8646    0.0000 C   0  0  0  0  0  0  0  0  0  0  0  0
    1.2949    0.4125    0.0000 N   0  0  0  0  0  0  0  0  0  0  0  0
    1.7798   -0.2549    0.0000 O   0  0  0  0  0  0  0  0  0  0  0  0
    4.7079   -0.4125    0.0000 C   0  0  0  0  0  0  0  0  0  0  0  0
    5.5329   -0.4125    0.0000 C   0  0  0  0  0  0  0  0  0  0  0  0
    5.1204   -1.1270    0.0000 C   0  0  0  0  0  0  0  0  0  0  0  0
  1  2  1  0  0  0  0
  2  3  1  0  0  0  0
  3  4  1  0  0  0  0
  4  5  2  0  0  0  0
  5  6  1  0  0  0  0
  6  7  2  0  0  0  0
  7  8  1  0  0  0  0
  8  9  2  0  0  0  0
  4  9  1  0  0  0  0
  2 10  1  0  0  0  0
 10 11  1  0  0  0  0
 11 12  1  0  0  0  0
 12 13  1  0  0  0  0
 13 14  1  0  0  0  0
 10 14  1  0  0  0  0
 13 15  1  0  0  0  0
 15 16  2  0  0  0  0
 15 17  1  0  0  0  0
 17 18  2  0  0  0  0
 18 19  1  0  0  0  0
 18 20  1  0  0  0  0
 20 21  2  0  0  0  0
 21 22  1  0  0  0  0
 22 23  2  0  0  0  0
 17 23  1  0  0  0  0
 23 24  1  0  0  0  0
 24 25  1  0  0  0  0
 24 26  2  0  0  0  0
 26 27  1  0  0  0  0
 22 27  1  0  0  0  0
 20 28  1  0  0  0  0
 28 29  1  0  0  0  0
 29 30  1  0  0  0  0
 28 30  1  0  0  0  0
M  END
> <ID>
CPD_940

$$$$
CPD_945
  Mrv1822 09091914012D          

 29 32  0  0  1  0            999 V2000
   -5.8979   -3.6069    0.0000 C   0  0  0  0  0  0  0  0  0  0  0  0
   -5.1226   -3.3247    0.0000 C   0  0  1  0  0  0  0  0  0  0  0  0
   -4.9794   -2.5122    0.0000 C   0  0  0  0  0  0  0  0  0  0  0  0
   -4.2041   -2.2301    0.0000 N   0  0  0  0  0  0  0  0  0  0  0  0
   -4.0609   -1.4176    0.0000 C   0  0  0  0  0  0  0  0  0  0  0  0
   -3.2856   -1.1354    0.0000 C   0  0  0  0  0  0  0  0  0  0  0  0
   -3.1424   -0.3230    0.0000 C   0  0  0  0  0  0  0  0  0  0  0  0
   -2.3671   -0.0408    0.0000 C   0  0  0  0  0  0  0  0  0  0  0  0
   -1.7351   -0.5711    0.0000 C   0  0  0  0  0  0  0  0  0  0  0  0
   -1.8784   -1.3836    0.0000 C   0  0  0  0  0  0  0  0  0  0  0  0
   -2.6536   -1.6657    0.0000 C   0  0  0  0  0  0  0  0  0  0  0  0
   -0.9599   -0.2889    0.0000 C   0  0  0  0  0  0  0  0  0  0  0  0
   -0.8166    0.5235    0.0000 O   0  0  0  0  0  0  0  0  0  0  0  0
   -0.3279   -0.8192    0.0000 N   0  0  0  0  0  0  0  0  0  0  0  0
    0.4474   -0.5371    0.0000 C   0  0  0  0  0  0  0  0  0  0  0  0
    1.0793   -1.0674    0.0000 C   0  0  0  0  0  0  0  0  0  0  0  0
    1.4918   -1.7818    0.0000 C   0  0  0  0  0  0  0  0  0  0  0  0
    0.6668   -1.7818    0.0000 C   0  0  0  0  0  0  0  0  0  0  0  0
    1.7113   -0.5371    0.0000 C   0  0  0  0  0  0  0  0  0  0  0  0
    1.5681    0.2754    0.0000 C   0  0  0  0  0  0  0  0  0  0  0  0
    2.2001    0.8057    0.0000 C   0  0  0  0  0  0  0  0  0  0  0  0
    2.0568    1.6182    0.0000 Br  0  0  0  0  0  0  0  0  0  0  0  0
    2.9753    0.5235    0.0000 C   0  0  0  0  0  0  0  0  0  0  0  0
    3.1186   -0.2889    0.0000 C   0  0  0  0  0  0  0  0  0  0  0  0
    2.4866   -0.8192    0.0000 C   0  0  0  0  0  0  0  0  0  0  0  0
   -3.5721   -2.7604    0.0000 C   0  0  0  0  0  0  0  0  0  0  0  0
   -3.7154   -3.5728    0.0000 C   0  0  1  0  0  0  0  0  0  0  0  0
   -3.0834   -4.1031    0.0000 C   0  0  0  0  0  0  0  0  0  0  0  0
   -4.4906   -3.8550    0.0000 O   0  0  0  0  0  0  0  0  0  0  0  0
  2  1  1  1  0  0  0
  2  3  1  0  0  0  0
  3  4  1  0  0  0  0
  4  5  1  0  0  0  0
  5  6  1  0  0  0  0
  6  7  2  0  0  0  0
  7  8  1  0  0  0  0
  8  9  2  0  0  0  0
  9 10  1  0  0  0  0
 10 11  2  0  0  0  0
  6 11  1  0  0  0  0
  9 12  1  0  0  0  0
 12 13  2  0  0  0  0
 12 14  1  0  0  0  0
 14 15  1  0  0  0  0
 15 16  1  0  0  0  0
 16 17  1  0  0  0  0
 17 18  1  0  0  0  0
 16 18  1  0  0  0  0
 16 19  1  0  0  0  0
 19 20  2  0  0  0  0
 20 21  1  0  0  0  0
 21 22  1  0  0  0  0
 21 23  2  0  0  0  0
 23 24  1  0  0  0  0
 24 25  2  0  0  0  0
 19 25  1  0  0  0  0
  4 26  1  0  0  0  0
 27 26  1  0  0  0  0
 27 28  1  1  0  0  0
 27 29  1  0  0  0  0
  2 29  1  0  0  0  0
M  END
> <ID>
CPD_945

$$$$
CPD_950
  Mrv1822 09091914012D          

 22 22  0  0  0  0            999 V2000
   -2.8579   -4.9500    0.0000 O   0  0  0  0  0  0  0  0  0  0  0  0
   -2.1434   -4.5375    0.0000 C   0  0  0  0  0  0  0  0  0  0  0  0
   -1.4289   -4.9500    0.0000 C   0  0  0  0  0  0  0  0  0  0  0  0
   -0.7145   -4.5375    0.0000 N   0  0  0  0  0  0  0  0  0  0  0  0
    0.0000   -4.9500    0.0000 C   0  0  0  0  0  0  0  0  0  0  0  0
    0.0000   -5.7750    0.0000 O   0  0  0  0  0  0  0  0  0  0  0  0
    0.7145   -4.5375    0.0000 C   0  0  0  0  0  0  0  0  0  0  0  0
    1.4289   -4.9500    0.0000 N   0  0  0  0  0  0  0  0  0  0  0  0
    2.1434   -4.5375    0.0000 C   0  0  0  0  0  0  0  0  0  0  0  0
    2.1434   -3.7125    0.0000 O   0  0  0  0  0  0  0  0  0  0  0  0
    2.8579   -4.9500    0.0000 C   0  0  0  0  0  0  0  0  0  0  0  0
    3.5724   -4.5375    0.0000 C   0  0  0  0  0  0  0  0  0  0  0  0
    3.5724   -3.7125    0.0000 C   0  0  0  0  0  0  0  0  0  0  0  0
    4.2868   -3.3000    0.0000 C   0  0  0  0  0  0  0  0  0  0  0  0
    4.2868   -2.4750    0.0000 Cl  0  0  0  0  0  0  0  0  0  0  0  0
    5.0013   -3.7125    0.0000 C   0  0  0  0  0  0  0  0  0  0  0  0
    5.0013   -4.5375    0.0000 C   0  0  0  0  0  0  0  0  0  0  0  0
    4.2868   -4.9500    0.0000 C   0  0  0  0  0  0  0  0  0  0  0  0
    5.7158   -4.9500    0.0000 C   0  0  0  0  0  0  0  0  0  0  0  0
    6.4302   -5.3625    0.0000 F   0  0  0  0  0  0  0  0  0  0  0  0
    5.3033   -5.6645    0.0000 F   0  0  0  0  0  0  0  0  0  0  0  0
    6.1283   -4.2355    0.0000 F   0  0  0  0  0  0  0  0  0  0  0  0
  1  2  1  0  0  0  0
  2  3  1  0  0  0  0
  3  4  1  0  0  0  0
  4  5  1  0  0  0  0
  5  6  2  0  0  0  0
  5  7  1  0  0  0  0
  7  8  1  0  0  0  0
  8  9  1  0  0  0  0
  9 10  2  0  0  0  0
  9 11  1  0  0  0  0
 11 12  1  0  0  0  0
 12 13  2  0  0  0  0
 13 14  1  0  0  0  0
 14 15  1  0  0  0  0
 14 16  2  0  0  0  0
 16 17  1  0  0  0  0
 17 18  2  0  0  0  0
 12 18  1  0  0  0  0
 17 19  1  0  0  0  0
 19 20  1  0  0  0  0
 19 21  1  0  0  0  0
 19 22  1  0  0  0  0
M  END
> <ID>
CPD_950

$$$$
CPD_955
  Mrv1822 09091914012D          

 28 31  0  0  1  0            999 V2000
    4.3618    3.8782    0.0000 O   0  0  0  0  0  0  0  0  0  0  0  0
    4.7743    3.1638    0.0000 C   0  0  0  0  0  0  0  0  0  0  0  0
    4.3618    2.4493    0.0000 O   0  0  0  0  0  0  0  0  0  0  0  0
    5.5993    3.1638    0.0000 C   0  0  2  0  0  0  0  0  0  0  0  0
    6.0842    3.8312    0.0000 C   0  0  0  0  0  0  0  0  0  0  0  0
    6.8688    3.5763    0.0000 C   0  0  2  0  0  0  0  0  0  0  0  0
    7.5363    4.0612    0.0000 F   0  0  0  0  0  0  0  0  0  0  0  0
    6.8688    2.7513    0.0000 C   0  0  0  0  0  0  0  0  0  0  0  0
    6.0842    2.4963    0.0000 N   0  0  0  0  0  0  0  0  0  0  0  0
    5.8293    1.7117    0.0000 C   0  0  0  0  0  0  0  0  0  0  0  0
    6.3813    1.0986    0.0000 O   0  0  0  0  0  0  0  0  0  0  0  0
    5.0223    1.5402    0.0000 C   0  0  0  0  0  0  0  0  0  0  0  0
    4.7674    0.7556    0.0000 C   0  0  0  0  0  0  0  0  0  0  0  0
    3.9604    0.5840    0.0000 N   0  0  0  0  0  0  0  0  0  0  0  0
    3.7054   -0.2006    0.0000 C   0  0  0  0  0  0  0  0  0  0  0  0
    4.2575   -0.8137    0.0000 S   0  0  0  0  0  0  0  0  0  0  0  0
    2.8985   -0.3721    0.0000 N   0  0  0  0  0  0  0  0  0  0  0  0
    2.3464    0.2410    0.0000 C   0  0  0  0  0  0  0  0  0  0  0  0
    2.6014    1.0256    0.0000 C   0  0  0  0  0  0  0  0  0  0  0  0
    1.9339    1.5105    0.0000 N   0  0  0  0  0  0  0  0  0  0  0  0
    1.2665    1.0256    0.0000 C   0  0  0  0  0  0  0  0  0  0  0  0
    1.5214    0.2410    0.0000 C   0  0  0  0  0  0  0  0  0  0  0  0
    0.9694   -0.3721    0.0000 C   0  0  0  0  0  0  0  0  0  0  0  0
    0.1624   -0.2006    0.0000 C   0  0  0  0  0  0  0  0  0  0  0  0
   -0.0925    0.5840    0.0000 C   0  0  0  0  0  0  0  0  0  0  0  0
    0.4595    1.1971    0.0000 C   0  0  0  0  0  0  0  0  0  0  0  0
    3.4084    1.1971    0.0000 C   0  0  0  0  0  0  0  0  0  0  0  0
    3.6633    1.9817    0.0000 O   0  0  0  0  0  0  0  0  0  0  0  0
  1  2  1  0  0  0  0
  2  3  2  0  0  0  0
  4  2  1  6  0  0  0
  4  5  1  0  0  0  0
  6  5  1  0  0  0  0
  6  7  1  6  0  0  0
  6  8  1  0  0  0  0
  8  9  1  0  0  0  0
  4  9  1  0  0  0  0
  9 10  1  0  0  0  0
 10 11  2  0  0  0  0
 10 12  1  0  0  0  0
 12 13  1  0  0  0  0
 13 14  1  0  0  0  0
 14 15  1  0  0  0  0
 15 16  2  0  0  0  0
 15 17  1  0  0  0  0
 17 18  1  0  0  0  0
 18 19  2  0  0  0  0
 19 20  1  0  0  0  0
 20 21  1  0  0  0  0
 21 22  2  0  0  0  0
 18 22  1  0  0  0  0
 22 23  1  0  0  0  0
 23 24  2  0  0  0  0
 24 25  1  0  0  0  0
 25 26  2  0  0  0  0
 21 26  1  0  0  0  0
 19 27  1  0  0  0  0
 14 27  1  0  0  0  0
 27 28  2  0  0  0  0
M  END
> <ID>
CPD_955

$$$$
CPD_960
  Mrv1822 09091914012D          

 22 24  0  0  1  0            999 V2000
    3.2789    2.0625    0.0000 C   0  0  0  0  0  0  0  0  0  0  0  0
    3.2789    1.2375    0.0000 C   0  0  0  0  0  0  0  0  0  0  0  0
    3.9934    0.8250    0.0000 C   0  0  0  0  0  0  0  0  0  0  0  0
    3.9934    0.0000    0.0000 C   0  0  0  0  0  0  0  0  0  0  0  0
    3.2789   -0.4125    0.0000 N   0  0  0  0  0  0  0  0  0  0  0  0
    2.5645    0.0000    0.0000 C   0  0  0  0  0  0  0  0  0  0  0  0
    1.7798   -0.2549    0.0000 C   0  0  0  0  0  0  0  0  0  0  0  0
    1.2949    0.4125    0.0000 C   0  0  0  0  0  0  0  0  0  0  0  0
    0.4699    0.4125    0.0000 O   0  0  0  0  0  0  0  0  0  0  0  0
    1.7798    1.0799    0.0000 N   0  0  0  0  0  0  0  0  0  0  0  0
    2.5645    0.8250    0.0000 N   0  0  0  0  0  0  0  0  0  0  0  0
    4.7079    1.2375    0.0000 C   0  0  0  0  0  0  0  0  0  0  0  0
    4.7079    2.0625    0.0000 O   0  0  0  0  0  0  0  0  0  0  0  0
    5.4223    0.8250    0.0000 N   0  0  0  0  0  0  0  0  0  0  0  0
    5.5086    0.0045    0.0000 C   0  0  0  0  0  0  0  0  0  0  0  0
    6.3155   -0.1670    0.0000 C   0  0  1  0  0  0  0  0  0  0  0  0
    6.6511   -0.9207    0.0000 F   0  0  0  0  0  0  0  0  0  0  0  0
    6.7280    0.5475    0.0000 C   0  0  0  0  0  0  0  0  0  0  0  0
    6.1760    1.1606    0.0000 C   0  0  1  0  0  0  0  0  0  0  0  0
    6.3475    1.9675    0.0000 C   0  0  0  0  0  0  0  0  0  0  0  0
    5.7344    2.5196    0.0000 O   0  0  0  0  0  0  0  0  0  0  0  0
    7.1322    2.2225    0.0000 O   0  0  0  0  0  0  0  0  0  0  0  0
  1  2  1  0  0  0  0
  2  3  2  0  0  0  0
  3  4  1  0  0  0  0
  4  5  2  0  0  0  0
  5  6  1  0  0  0  0
  6  7  2  0  0  0  0
  7  8  1  0  0  0  0
  8  9  1  0  0  0  0
  8 10  2  0  0  0  0
 10 11  1  0  0  0  0
  2 11  1  0  0  0  0
  6 11  1  0  0  0  0
  3 12  1  0  0  0  0
 12 13  2  0  0  0  0
 12 14  1  0  0  0  0
 14 15  1  0  0  0  0
 16 15  1  0  0  0  0
 16 17  1  6  0  0  0
 16 18  1  0  0  0  0
 19 18  1  0  0  0  0
 19 14  1  0  0  0  0
 19 20  1  6  0  0  0
 20 21  1  0  0  0  0
 20 22  2  0  0  0  0
M  END
> <ID>
CPD_960

$$$$
CPD_965
  Mrv1822 09091914012D          

 23 25  0  0  0  0            999 V2000
    2.1434   -2.0625    0.0000 C   0  0  0  0  0  0  0  0  0  0  0  0
    1.4289   -2.4750    0.0000 O   0  0  0  0  0  0  0  0  0  0  0  0
    0.7145   -2.0625    0.0000 C   0  0  0  0  0  0  0  0  0  0  0  0
    0.0000   -2.4750    0.0000 C   0  0  0  0  0  0  0  0  0  0  0  0
   -0.7145   -2.0625    0.0000 C   0  0  0  0  0  0  0  0  0  0  0  0
   -0.7145   -1.2375    0.0000 C   0  0  0  0  0  0  0  0  0  0  0  0
    0.0000   -0.8250    0.0000 C   0  0  0  0  0  0  0  0  0  0  0  0
    0.7145   -1.2375    0.0000 C   0  0  0  0  0  0  0  0  0  0  0  0
    1.4289   -0.8250    0.0000 O   0  0  0  0  0  0  0  0  0  0  0  0
    2.1434   -1.2375    0.0000 C   0  0  0  0  0  0  0  0  0  0  0  0
    2.8579   -0.8250    0.0000 C   0  0  0  0  0  0  0  0  0  0  0  0
    2.8579    0.0000    0.0000 O   0  0  0  0  0  0  0  0  0  0  0  0
    3.5724   -1.2375    0.0000 N   0  0  0  0  0  0  0  0  0  0  0  0
    4.2868   -0.8250    0.0000 C   0  0  0  0  0  0  0  0  0  0  0  0
    5.0013   -1.2375    0.0000 C   0  0  0  0  0  0  0  0  0  0  0  0
    5.7158   -0.8250    0.0000 C   0  0  0  0  0  0  0  0  0  0  0  0
    6.1283   -0.1105    0.0000 C   0  0  0  0  0  0  0  0  0  0  0  0
    6.5408   -0.8250    0.0000 C   0  0  0  0  0  0  0  0  0  0  0  0
   -1.4289   -2.4750    0.0000 N   0  0  0  0  0  0  0  0  0  0  0  0
   -1.5152   -3.2955    0.0000 C   0  0  0  0  0  0  0  0  0  0  0  0
   -2.3221   -3.4670    0.0000 N   0  0  0  0  0  0  0  0  0  0  0  0
   -2.7346   -2.7525    0.0000 N   0  0  0  0  0  0  0  0  0  0  0  0
   -2.1826   -2.1394    0.0000 N   0  0  0  0  0  0  0  0  0  0  0  0
  1  2  1  0  0  0  0
  2  3  1  0  0  0  0
  3  4  2  0  0  0  0
  4  5  1  0  0  0  0
  5  6  2  0  0  0  0
  6  7  1  0  0  0  0
  7  8  2  0  0  0  0
  3  8  1  0  0  0  0
  8  9  1  0  0  0  0
  9 10  1  0  0  0  0
 10 11  1  0  0  0  0
 11 12  2  0  0  0  0
 11 13  1  0  0  0  0
 13 14  1  0  0  0  0
 14 15  1  0  0  0  0
 15 16  1  0  0  0  0
 16 17  1  0  0  0  0
 17 18  1  0  0  0  0
 16 18  1  0  0  0  0
  5 19  1  0  0  0  0
 19 20  1  0  0  0  0
 20 21  2  0  0  0  0
 21 22  1  0  0  0  0
 22 23  2  0  0  0  0
 19 23  1  0  0  0  0
M  END
> <ID>
CPD_965

$$$$
CPD_970
  Mrv1822 09091914012D          

 29 32  0  0  0  0            999 V2000
    1.5547    3.9911    0.0000 C   0  0  0  0  0  0  0  0  0  0  0  0
    1.0027    3.3780    0.0000 C   0  0  0  0  0  0  0  0  0  0  0  0
    1.2577    2.5934    0.0000 C   0  0  0  0  0  0  0  0  0  0  0  0
    0.7056    1.9803    0.0000 C   0  0  0  0  0  0  0  0  0  0  0  0
   -0.1014    2.1518    0.0000 C   0  0  0  0  0  0  0  0  0  0  0  0
   -0.6534    1.5387    0.0000 N   0  0  0  0  0  0  0  0  0  0  0  0
   -0.3984    0.7541    0.0000 S   0  0  0  0  0  0  0  0  0  0  0  0
   -1.1831    0.4992    0.0000 O   0  0  0  0  0  0  0  0  0  0  0  0
    0.3862    1.0091    0.0000 O   0  0  0  0  0  0  0  0  0  0  0  0
   -0.1435   -0.0305    0.0000 C   0  0  0  0  0  0  0  0  0  0  0  0
   -0.6284   -0.6979    0.0000 C   0  0  0  0  0  0  0  0  0  0  0  0
   -0.1435   -1.3654    0.0000 S   0  0  0  0  0  0  0  0  0  0  0  0
    0.6411   -1.1104    0.0000 C   0  0  0  0  0  0  0  0  0  0  0  0
    0.6411   -0.2854    0.0000 C   0  0  0  0  0  0  0  0  0  0  0  0
    1.3556    0.1271    0.0000 C   0  0  0  0  0  0  0  0  0  0  0  0
    2.0701   -0.2854    0.0000 C   0  0  0  0  0  0  0  0  0  0  0  0
    2.0701   -1.1104    0.0000 C   0  0  0  0  0  0  0  0  0  0  0  0
    1.3556   -1.5229    0.0000 C   0  0  0  0  0  0  0  0  0  0  0  0
   -1.4534   -0.6979    0.0000 C   0  0  0  0  0  0  0  0  0  0  0  0
   -1.8659    0.0165    0.0000 O   0  0  0  0  0  0  0  0  0  0  0  0
   -1.8659   -1.4124    0.0000 N   0  0  0  0  0  0  0  0  0  0  0  0
   -2.6909   -1.4124    0.0000 C   0  0  0  0  0  0  0  0  0  0  0  0
   -3.1034   -2.1269    0.0000 C   0  0  0  0  0  0  0  0  0  0  0  0
   -3.9284   -2.1269    0.0000 C   0  0  0  0  0  0  0  0  0  0  0  0
   -4.6429   -2.5394    0.0000 C   0  0  0  0  0  0  0  0  0  0  0  0
   -4.6429   -1.7144    0.0000 C   0  0  0  0  0  0  0  0  0  0  0  0
   -0.3563    2.9365    0.0000 C   0  0  0  0  0  0  0  0  0  0  0  0
    0.1957    3.5496    0.0000 C   0  0  0  0  0  0  0  0  0  0  0  0
   -0.0592    4.3342    0.0000 C   0  0  0  0  0  0  0  0  0  0  0  0
  1  2  1  0  0  0  0
  2  3  2  0  0  0  0
  3  4  1  0  0  0  0
  4  5  2  0  0  0  0
  5  6  1  0  0  0  0
  6  7  1  0  0  0  0
  7  8  2  0  0  0  0
  7  9  2  0  0  0  0
  7 10  1  0  0  0  0
 10 11  2  0  0  0  0
 11 12  1  0  0  0  0
 12 13  1  0  0  0  0
 13 14  2  0  0  0  0
 10 14  1  0  0  0  0
 14 15  1  0  0  0  0
 15 16  2  0  0  0  0
 16 17  1  0  0  0  0
 17 18  2  0  0  0  0
 13 18  1  0  0  0  0
 11 19  1  0  0  0  0
 19 20  2  0  0  0  0
 19 21  1  0  0  0  0
 21 22  1  0  0  0  0
 22 23  1  0  0  0  0
 23 24  1  0  0  0  0
 24 25  1  0  0  0  0
 25 26  1  0  0  0  0
 24 26  1  0  0  0  0
  5 27  1  0  0  0  0
 27 28  2  0  0  0  0
  2 28  1  0  0  0  0
 28 29  1  0  0  0  0
M  END
> <ID>
CPD_970

$$$$
CPD_975
  Mrv1822 09091914012D          

 33 37  0  0  1  0            999 V2000
   -3.5724   -1.2375    0.0000 C   0  0  0  0  0  0  0  0  0  0  0  0
   -2.8579   -1.6500    0.0000 C   0  0  1  0  0  0  0  0  0  0  0  0
   -2.1434   -1.2375    0.0000 C   0  0  0  0  0  0  0  0  0  0  0  0
   -1.4289   -1.6500    0.0000 N   0  0  0  0  0  0  0  0  0  0  0  0
   -1.4289   -2.4750    0.0000 C   0  0  0  0  0  0  0  0  0  0  0  0
   -2.1434   -2.8875    0.0000 C   0  0  1  0  0  0  0  0  0  0  0  0
   -2.1434   -3.7125    0.0000 C   0  0  0  0  0  0  0  0  0  0  0  0
   -2.8579   -2.4750    0.0000 N   0  0  0  0  0  0  0  0  0  0  0  0
   -0.7145   -1.2375    0.0000 C   0  0  0  0  0  0  0  0  0  0  0  0
    0.0000   -1.6500    0.0000 C   0  0  0  0  0  0  0  0  0  0  0  0
    0.0000   -2.4750    0.0000 F   0  0  0  0  0  0  0  0  0  0  0  0
    0.7145   -1.2375    0.0000 C   0  0  0  0  0  0  0  0  0  0  0  0
    0.7145   -0.4125    0.0000 C   0  0  0  0  0  0  0  0  0  0  0  0
    0.0000   -0.0000    0.0000 C   0  0  0  0  0  0  0  0  0  0  0  0
    0.0000    0.8250    0.0000 N   0  0  0  0  0  0  0  0  0  0  0  0
   -0.7145   -0.4125    0.0000 C   0  0  0  0  0  0  0  0  0  0  0  0
   -1.4289    0.0000    0.0000 F   0  0  0  0  0  0  0  0  0  0  0  0
    1.4289   -0.0000    0.0000 C   0  0  0  0  0  0  0  0  0  0  0  0
    1.4289    0.8250    0.0000 O   0  0  0  0  0  0  0  0  0  0  0  0
    2.1434   -0.4125    0.0000 C   0  0  0  0  0  0  0  0  0  0  0  0
    2.1434   -1.2375    0.0000 C   0  0  0  0  0  0  0  0  0  0  0  0
    1.4289   -1.6500    0.0000 N   0  0  0  0  0  0  0  0  0  0  0  0
    1.4289   -2.4750    0.0000 C   0  0  0  0  0  0  0  0  0  0  0  0
    1.8414   -3.1895    0.0000 C   0  0  0  0  0  0  0  0  0  0  0  0
    1.0164   -3.1895    0.0000 C   0  0  0  0  0  0  0  0  0  0  0  0
    2.8579   -0.0000    0.0000 C   0  0  0  0  0  0  0  0  0  0  0  0
    3.5724   -0.4125    0.0000 O   0  0  0  0  0  0  0  0  0  0  0  0
    2.8579    0.8250    0.0000 N   0  0  0  0  0  0  0  0  0  0  0  0
    3.5724    1.2375    0.0000 C   0  0  0  0  0  0  0  0  0  0  0  0
    3.5724    2.0625    0.0000 C   0  0  0  0  0  0  0  0  0  0  0  0
    4.2868    2.4750    0.0000 C   0  0  0  0  0  0  0  0  0  0  0  0
    4.6993    3.1895    0.0000 C   0  0  0  0  0  0  0  0  0  0  0  0
    5.1118    2.4750    0.0000 C   0  0  0  0  0  0  0  0  0  0  0  0
  2  1  1  1  0  0  0
  2  3  1  0  0  0  0
  3  4  1  0  0  0  0
  4  5  1  0  0  0  0
  6  5  1  0  0  0  0
  6  7  1  1  0  0  0
  6  8  1  0  0  0  0
  2  8  1  0  0  0  0
  4  9  1  0  0  0  0
  9 10  2  0  0  0  0
 10 11  1  0  0  0  0
 10 12  1  0  0  0  0
 12 13  2  0  0  0  0
 13 14  1  0  0  0  0
 14 15  1  0  0  0  0
 14 16  2  0  0  0  0
  9 16  1  0  0  0  0
 16 17  1  0  0  0  0
 13 18  1  0  0  0  0
 18 19  2  0  0  0  0
 18 20  1  0  0  0  0
 20 21  2  0  0  0  0
 21 22  1  0  0  0  0
 12 22  1  0  0  0  0
 22 23  1  0  0  0  0
 23 24  1  0  0  0  0
 24 25  1  0  0  0  0
 23 25  1  0  0  0  0
 20 26  1  0  0  0  0
 26 27  2  0  0  0  0
 26 28  1  0  0  0  0
 28 29  1  0  0  0  0
 29 30  1  0  0  0  0
 30 31  1  0  0  0  0
 31 32  1  0  0  0  0
 32 33  1  0  0  0  0
 31 33  1  0  0  0  0
M  END
> <ID>
CPD_975

$$$$
CPD_980
  Mrv1822 09091914012D          

 33 35  0  0  0  0            999 V2000
   -0.6397    0.7402    0.0000 O   0  0  0  0  0  0  0  0  0  0  0  0
   -0.3965   -0.0481    0.0000 C   0  0  0  0  0  0  0  0  0  0  0  0
    0.4078   -0.2317    0.0000 O   0  0  0  0  0  0  0  0  0  0  0  0
   -0.9576   -0.6529    0.0000 C   0  0  0  0  0  0  0  0  0  0  0  0
   -0.7145   -1.4413    0.0000 C   0  0  0  0  0  0  0  0  0  0  0  0
   -0.1533   -2.0460    0.0000 C   0  0  0  0  0  0  0  0  0  0  0  0
   -0.2763   -2.8618    0.0000 C   0  0  0  0  0  0  0  0  0  0  0  0
   -0.9908   -3.2743    0.0000 C   0  0  0  0  0  0  0  0  0  0  0  0
   -1.7587   -2.9729    0.0000 C   0  0  0  0  0  0  0  0  0  0  0  0
   -2.0019   -2.1846    0.0000 C   0  0  0  0  0  0  0  0  0  0  0  0
   -1.5372   -1.5029    0.0000 C   0  0  0  0  0  0  0  0  0  0  0  0
   -0.0000   -1.0288    0.0000 N   0  0  0  0  0  0  0  0  0  0  0  0
    0.7145   -1.4413    0.0000 C   0  0  0  0  0  0  0  0  0  0  0  0
    0.7145   -2.2663    0.0000 O   0  0  0  0  0  0  0  0  0  0  0  0
    1.4289   -1.0288    0.0000 C   0  0  0  0  0  0  0  0  0  0  0  0
    2.1434   -1.4413    0.0000 C   0  0  0  0  0  0  0  0  0  0  0  0
    2.1434   -2.2663    0.0000 N   0  0  0  0  0  0  0  0  0  0  0  0
    2.8579   -2.6788    0.0000 C   0  0  0  0  0  0  0  0  0  0  0  0
    2.8579   -3.5038    0.0000 C   0  0  0  0  0  0  0  0  0  0  0  0
    3.5253   -3.9887    0.0000 C   0  0  0  0  0  0  0  0  0  0  0  0
    3.2704   -4.7733    0.0000 C   0  0  0  0  0  0  0  0  0  0  0  0
    2.4454   -4.7733    0.0000 C   0  0  0  0  0  0  0  0  0  0  0  0
    2.1904   -3.9887    0.0000 O   0  0  0  0  0  0  0  0  0  0  0  0
    2.8579   -1.0288    0.0000 C   0  0  0  0  0  0  0  0  0  0  0  0
    2.8579   -0.2038    0.0000 O   0  0  0  0  0  0  0  0  0  0  0  0
    3.5724   -1.4413    0.0000 O   0  0  0  0  0  0  0  0  0  0  0  0
    4.2868   -1.0288    0.0000 C   0  0  0  0  0  0  0  0  0  0  0  0
    5.0013   -1.4413    0.0000 C   0  0  0  0  0  0  0  0  0  0  0  0
    5.7158   -1.0288    0.0000 C   0  0  0  0  0  0  0  0  0  0  0  0
    6.4302   -1.4413    0.0000 C   0  0  0  0  0  0  0  0  0  0  0  0
    6.4302   -2.2663    0.0000 C   0  0  0  0  0  0  0  0  0  0  0  0
    5.7158   -2.6788    0.0000 C   0  0  0  0  0  0  0  0  0  0  0  0
    5.0013   -2.2663    0.0000 C   0  0  0  0  0  0  0  0  0  0  0  0
  1  2  1  0  0  0  0
  2  3  2  0  0  0  0
  2  4  1  0  0  0  0
  4  5  1  0  0  0  0
  5  6  1  0  0  0  0
  6  7  1  0  0  0  0
  7  8  1  0  0  0  0
  8  9  1  0  0  0  0
  9 10  1  0  0  0  0
 10 11  1  0  0  0  0
  5 11  1  0  0  0  0
  5 12  1  0  0  0  0
 12 13  1  0  0  0  0
 13 14  2  0  0  0  0
 13 15  1  0  0  0  0
 15 16  1  0  0  0  0
 16 17  1  0  0  0  0
 17 18  1  0  0  0  0
 18 19  1  0  0  0  0
 19 20  2  0  0  0  0
 20 21  1  0  0  0  0
 21 22  2  0  0  0  0
 22 23  1  0  0  0  0
 19 23  1  0  0  0  0
 16 24  1  0  0  0  0
 24 25  2  0  0  0  0
 24 26  1  0  0  0  0
 26 27  1  0  0  0  0
 27 28  1  0  0  0  0
 28 29  2  0  0  0  0
 29 30  1  0  0  0  0
 30 31  2  0  0  0  0
 31 32  1  0  0  0  0
 32 33  2  0  0  0  0
 28 33  1  0  0  0  0
M  END
> <ID>
CPD_980

$$$$
CPD_985
  Mrv1822 09091914012D          

 25 27  0  0  0  0            999 V2000
    0.7809   -0.1554    0.0000 O   0  0  0  0  0  0  0  0  0  0  0  0
   -0.0234    0.0282    0.0000 C   0  0  0  0  0  0  0  0  0  0  0  0
   -0.5846   -0.5766    0.0000 O   0  0  0  0  0  0  0  0  0  0  0  0
   -0.2666    0.8165    0.0000 C   0  0  0  0  0  0  0  0  0  0  0  0
   -1.0709    1.0001    0.0000 C   0  0  0  0  0  0  0  0  0  0  0  0
   -1.8752    0.8165    0.0000 C   0  0  0  0  0  0  0  0  0  0  0  0
   -2.5202    1.3309    0.0000 C   0  0  0  0  0  0  0  0  0  0  0  0
   -2.5202    2.1559    0.0000 C   0  0  0  0  0  0  0  0  0  0  0  0
   -1.8752    2.6703    0.0000 C   0  0  0  0  0  0  0  0  0  0  0  0
   -1.0709    2.4867    0.0000 C   0  0  0  0  0  0  0  0  0  0  0  0
   -0.7130    1.7434    0.0000 C   0  0  0  0  0  0  0  0  0  0  0  0
   -1.0709    0.1751    0.0000 N   0  0  0  0  0  0  0  0  0  0  0  0
   -1.7854   -0.2374    0.0000 C   0  0  0  0  0  0  0  0  0  0  0  0
   -2.4999    0.1751    0.0000 O   0  0  0  0  0  0  0  0  0  0  0  0
   -1.7854   -1.0624    0.0000 C   0  0  0  0  0  0  0  0  0  0  0  0
   -1.3729   -1.7769    0.0000 C   0  0  0  0  0  0  0  0  0  0  0  0
   -2.1979   -1.7769    0.0000 C   0  0  0  0  0  0  0  0  0  0  0  0
   -2.9124   -2.1894    0.0000 C   0  0  0  0  0  0  0  0  0  0  0  0
   -2.9124   -3.0144    0.0000 C   0  0  0  0  0  0  0  0  0  0  0  0
   -2.1979   -3.4269    0.0000 Cl  0  0  0  0  0  0  0  0  0  0  0  0
   -3.6268   -3.4269    0.0000 C   0  0  0  0  0  0  0  0  0  0  0  0
   -4.3413   -3.0144    0.0000 C   0  0  0  0  0  0  0  0  0  0  0  0
   -4.3413   -2.1894    0.0000 C   0  0  0  0  0  0  0  0  0  0  0  0
   -3.6268   -1.7769    0.0000 C   0  0  0  0  0  0  0  0  0  0  0  0
   -3.6268   -0.9519    0.0000 Cl  0  0  0  0  0  0  0  0  0  0  0  0
  1  2  1  0  0  0  0
  2  3  2  0  0  0  0
  2  4  1  0  0  0  0
  4  5  1  0  0  0  0
  5  6  1  0  0  0  0
  6  7  1  0  0  0  0
  7  8  1  0  0  0  0
  8  9  1  0  0  0  0
  9 10  1  0  0  0  0
 10 11  1  0  0  0  0
  5 11  1  0  0  0  0
  5 12  1  0  0  0  0
 12 13  1  0  0  0  0
 13 14  2  0  0  0  0
 13 15  1  0  0  0  0
 15 16  1  0  0  0  0
 16 17  1  0  0  0  0
 15 17  1  0  0  0  0
 17 18  1  0  0  0  0
 18 19  2  0  0  0  0
 19 20  1  0  0  0  0
 19 21  1  0  0  0  0
 21 22  2  0  0  0  0
 22 23  1  0  0  0  0
 23 24  2  0  0  0  0
 18 24  1  0  0  0  0
 24 25  1  0  0  0  0
M  END
> <ID>
CPD_985

$$$$
CPD_990
  Mrv1822 09091914012D          

 26 28  0  0  0  0            999 V2000
   -1.9617    2.3225    0.0000 N   0  0  0  0  0  0  0  0  0  0  0  0
   -1.9617    1.4975    0.0000 C   0  0  0  0  0  0  0  0  0  0  0  0
   -1.2472    1.0850    0.0000 C   0  0  0  0  0  0  0  0  0  0  0  0
   -1.2472    0.2600    0.0000 C   0  0  0  0  0  0  0  0  0  0  0  0
   -1.9617   -0.1525    0.0000 C   0  0  0  0  0  0  0  0  0  0  0  0
   -2.6761    0.2600    0.0000 C   0  0  0  0  0  0  0  0  0  0  0  0
   -2.6761    1.0850    0.0000 C   0  0  0  0  0  0  0  0  0  0  0  0
   -1.9617   -0.9775    0.0000 N   0  0  0  0  0  0  0  0  0  0  0  0
   -1.2942   -1.4624    0.0000 C   0  0  0  0  0  0  0  0  0  0  0  0
   -1.5492   -2.2470    0.0000 C   0  0  0  0  0  0  0  0  0  0  0  0
   -2.3742   -2.2470    0.0000 C   0  0  0  0  0  0  0  0  0  0  0  0
   -2.6291   -1.4624    0.0000 N   0  0  0  0  0  0  0  0  0  0  0  0
   -1.0642   -2.9145    0.0000 C   0  0  0  0  0  0  0  0  0  0  0  0
   -0.2438   -2.8282    0.0000 O   0  0  0  0  0  0  0  0  0  0  0  0
   -1.3998   -3.6682    0.0000 N   0  0  0  0  0  0  0  0  0  0  0  0
   -0.9149   -4.3356    0.0000 C   0  0  0  0  0  0  0  0  0  0  0  0
   -1.6735   -4.6598    0.0000 C   0  0  0  0  0  0  0  0  0  0  0  0
   -2.3336   -4.1650    0.0000 C   0  0  0  0  0  0  0  0  0  0  0  0
   -3.0922   -4.4892    0.0000 O   0  0  0  0  0  0  0  0  0  0  0  0
   -2.2351   -3.3459    0.0000 O   0  0  0  0  0  0  0  0  0  0  0  0
   -0.3721   -3.7143    0.0000 C   0  0  0  0  0  0  0  0  0  0  0  0
    0.4521   -3.7513    0.0000 C   0  0  0  0  0  0  0  0  0  0  0  0
    0.9370   -4.4188    0.0000 C   0  0  0  0  0  0  0  0  0  0  0  0
    0.7175   -5.2140    0.0000 C   0  0  0  0  0  0  0  0  0  0  0  0
   -0.0411   -5.5383    0.0000 C   0  0  0  0  0  0  0  0  0  0  0  0
   -0.7676   -5.1473    0.0000 C   0  0  0  0  0  0  0  0  0  0  0  0
  1  2  1  0  0  0  0
  2  3  2  0  0  0  0
  3  4  1  0  0  0  0
  4  5  2  0  0  0  0
  5  6  1  0  0  0  0
  6  7  2  0  0  0  0
  2  7  1  0  0  0  0
  5  8  1  0  0  0  0
  8  9  1  0  0  0  0
  9 10  2  0  0  0  0
 10 11  1  0  0  0  0
 11 12  2  0  0  0  0
  8 12  1  0  0  0  0
 10 13  1  0  0  0  0
 13 14  2  0  0  0  0
 13 15  1  0  0  0  0
 15 16  1  0  0  0  0
 16 17  1  0  0  0  0
 17 18  1  0  0  0  0
 18 19  1  0  0  0  0
 18 20  2  0  0  0  0
 16 21  1  0  0  0  0
 21 22  1  0  0  0  0
 22 23  1  0  0  0  0
 23 24  1  0  0  0  0
 24 25  1  0  0  0  0
 25 26  1  0  0  0  0
 16 26  1  0  0  0  0
M  END
> <ID>
CPD_990

$$$$
CPD_995
  Mrv1822 09091914012D          

 32 36  0  0  0  0            999 V2000
    0.0000   -4.1250    0.0000 C   0  0  0  0  0  0  0  0  0  0  0  0
    0.7145   -3.7125    0.0000 C   0  0  0  0  0  0  0  0  0  0  0  0
    0.7145   -2.8875    0.0000 C   0  0  0  0  0  0  0  0  0  0  0  0
    1.4289   -2.4750    0.0000 C   0  0  0  0  0  0  0  0  0  0  0  0
    2.1434   -2.8875    0.0000 C   0  0  0  0  0  0  0  0  0  0  0  0
    2.1434   -3.7125    0.0000 C   0  0  0  0  0  0  0  0  0  0  0  0
    2.8579   -4.1250    0.0000 C   0  0  0  0  0  0  0  0  0  0  0  0
    1.4289   -4.1250    0.0000 C   0  0  0  0  0  0  0  0  0  0  0  0
    1.4289   -1.6500    0.0000 N   0  0  0  0  0  0  0  0  0  0  0  0
    0.7145   -1.2375    0.0000 C   0  0  0  0  0  0  0  0  0  0  0  0
    0.7145   -0.4125    0.0000 C   0  0  0  0  0  0  0  0  0  0  0  0
    0.0000    0.0000    0.0000 C   0  0  0  0  0  0  0  0  0  0  0  0
    0.0000    0.8250    0.0000 O   0  0  0  0  0  0  0  0  0  0  0  0
   -0.7145   -0.4125    0.0000 N   0  0  0  0  0  0  0  0  0  0  0  0
   -0.8007   -1.2330    0.0000 C   0  0  0  0  0  0  0  0  0  0  0  0
   -1.6077   -1.4045    0.0000 C   0  0  0  0  0  0  0  0  0  0  0  0
   -2.0202   -0.6900    0.0000 C   0  0  0  0  0  0  0  0  0  0  0  0
   -2.6613   -1.2092    0.0000 C   0  0  0  0  0  0  0  0  0  0  0  0
   -3.1805   -0.5681    0.0000 O   0  0  0  0  0  0  0  0  0  0  0  0
   -2.5394   -0.0489    0.0000 C   0  0  0  0  0  0  0  0  0  0  0  0
   -1.4681   -0.0769    0.0000 C   0  0  0  0  0  0  0  0  0  0  0  0
    1.4289    0.0000    0.0000 S   0  0  0  0  0  0  0  0  0  0  0  0
    0.8986    0.6320    0.0000 O   0  0  0  0  0  0  0  0  0  0  0  0
    1.9592    0.6320    0.0000 O   0  0  0  0  0  0  0  0  0  0  0  0
    2.1434   -0.4125    0.0000 C   0  0  0  0  0  0  0  0  0  0  0  0
    2.8579    0.0000    0.0000 C   0  0  0  0  0  0  0  0  0  0  0  0
    3.5724   -0.4125    0.0000 C   0  0  0  0  0  0  0  0  0  0  0  0
    4.2868   -0.0000    0.0000 F   0  0  0  0  0  0  0  0  0  0  0  0
    3.5724   -1.2375    0.0000 C   0  0  0  0  0  0  0  0  0  0  0  0
    4.2868   -1.6500    0.0000 F   0  0  0  0  0  0  0  0  0  0  0  0
    2.8579   -1.6500    0.0000 C   0  0  0  0  0  0  0  0  0  0  0  0
    2.1434   -1.2375    0.0000 C   0  0  0  0  0  0  0  0  0  0  0  0
  1  2  1  0  0  0  0
  2  3  2  0  0  0  0
  3  4  1  0  0  0  0
  4  5  2  0  0  0  0
  5  6  1  0  0  0  0
  6  7  1  0  0  0  0
  6  8  2  0  0  0  0
  2  8  1  0  0  0  0
  4  9  1  0  0  0  0
  9 10  1  0  0  0  0
 10 11  2  0  0  0  0
 11 12  1  0  0  0  0
 12 13  2  0  0  0  0
 12 14  1  0  0  0  0
 14 15  1  0  0  0  0
 15 16  1  0  0  0  0
 16 17  1  0  0  0  0
 17 18  1  0  0  0  0
 18 19  1  0  0  0  0
 19 20  1  0  0  0  0
 17 20  1  0  0  0  0
 17 21  1  0  0  0  0
 14 21  1  0  0  0  0
 11 22  1  0  0  0  0
 22 23  2  0  0  0  0
 22 24  2  0  0  0  0
 22 25  1  0  0  0  0
 25 26  2  0  0  0  0
 26 27  1  0  0  0  0
 27 28  1  0  0  0  0
 27 29  2  0  0  0  0
 29 30  1  0  0  0  0
 29 31  1  0  0  0  0
 31 32  2  0  0  0  0
  9 32  1  0  0  0  0
 25 32  1  0  0  0  0
M  END
> <ID>
CPD_995

$$$$
CPD_1000
  Mrv1822 09091914012D          

 33 38  0  0  0  0            999 V2000
   -3.0587   -1.4124    0.0000 C   0  0  0  0  0  0  0  0  0  0  0  0
   -2.6462   -0.6979    0.0000 O   0  0  0  0  0  0  0  0  0  0  0  0
   -1.8212   -0.6979    0.0000 C   0  0  0  0  0  0  0  0  0  0  0  0
   -1.4087    0.0165    0.0000 C   0  0  0  0  0  0  0  0  0  0  0  0
   -0.5837    0.0165    0.0000 C   0  0  0  0  0  0  0  0  0  0  0  0
   -0.1712   -0.6979    0.0000 C   0  0  0  0  0  0  0  0  0  0  0  0
   -0.5837   -1.4124    0.0000 C   0  0  0  0  0  0  0  0  0  0  0  0
   -1.4087   -1.4124    0.0000 C   0  0  0  0  0  0  0  0  0  0  0  0
    0.6538   -0.6979    0.0000 C   0  0  0  0  0  0  0  0  0  0  0  0
    1.1387   -0.0305    0.0000 N   0  0  0  0  0  0  0  0  0  0  0  0
    1.9233   -0.2854    0.0000 N   0  0  0  0  0  0  0  0  0  0  0  0
    2.6378    0.1271    0.0000 C   0  0  0  0  0  0  0  0  0  0  0  0
    3.3523   -0.2854    0.0000 C   0  0  0  0  0  0  0  0  0  0  0  0
    3.3523   -1.1104    0.0000 N   0  0  0  0  0  0  0  0  0  0  0  0
    2.6378   -1.5229    0.0000 C   0  0  0  0  0  0  0  0  0  0  0  0
    2.6378   -2.3479    0.0000 N   0  0  0  0  0  0  0  0  0  0  0  0
    3.3523   -2.7604    0.0000 C   0  0  0  0  0  0  0  0  0  0  0  0
    3.3523   -3.5854    0.0000 C   0  0  0  0  0  0  0  0  0  0  0  0
    2.6378   -3.9979    0.0000 C   0  0  0  0  0  0  0  0  0  0  0  0
    1.9233   -3.5854    0.0000 C   0  0  0  0  0  0  0  0  0  0  0  0
    1.9233   -2.7604    0.0000 C   0  0  0  0  0  0  0  0  0  0  0  0
    2.6378   -4.8229    0.0000 C   0  0  0  0  0  0  0  0  0  0  0  0
    1.9233   -5.2354    0.0000 O   0  0  0  0  0  0  0  0  0  0  0  0
    3.3523   -5.2354    0.0000 N   0  0  0  0  0  0  0  0  0  0  0  0
    4.1060   -4.8999    0.0000 C   0  0  0  0  0  0  0  0  0  0  0  0
    4.6580   -5.5130    0.0000 C   0  0  0  0  0  0  0  0  0  0  0  0
    4.2455   -6.2275    0.0000 C   0  0  0  0  0  0  0  0  0  0  0  0
    5.0157   -6.5231    0.0000 C   0  0  0  0  0  0  0  0  0  0  0  0
    4.7200   -7.2933    0.0000 O   0  0  0  0  0  0  0  0  0  0  0  0
    3.9498   -6.9977    0.0000 C   0  0  0  0  0  0  0  0  0  0  0  0
    3.4385   -6.0559    0.0000 C   0  0  0  0  0  0  0  0  0  0  0  0
    1.9233   -1.1104    0.0000 C   0  0  0  0  0  0  0  0  0  0  0  0
    1.1387   -1.3654    0.0000 C   0  0  0  0  0  0  0  0  0  0  0  0
  1  2  1  0  0  0  0
  2  3  1  0  0  0  0
  3  4  2  0  0  0  0
  4  5  1  0  0  0  0
  5  6  2  0  0  0  0
  6  7  1  0  0  0  0
  7  8  2  0  0  0  0
  3  8  1  0  0  0  0
  6  9  1  0  0  0  0
  9 10  2  0  0  0  0
 10 11  1  0  0  0  0
 11 12  1  0  0  0  0
 12 13  2  0  0  0  0
 13 14  1  0  0  0  0
 14 15  2  0  0  0  0
 15 16  1  0  0  0  0
 16 17  1  0  0  0  0
 17 18  1  0  0  0  0
 18 19  1  0  0  0  0
 19 20  1  0  0  0  0
 20 21  1  0  0  0  0
 16 21  1  0  0  0  0
 19 22  1  0  0  0  0
 22 23  2  0  0  0  0
 22 24  1  0  0  0  0
 24 25  1  0  0  0  0
 25 26  1  0  0  0  0
 26 27  1  0  0  0  0
 27 28  1  0  0  0  0
 28 29  1  0  0  0  0
 29 30  1  0  0  0  0
 27 30  1  0  0  0  0
 27 31  1  0  0  0  0
 24 31  1  0  0  0  0
 15 32  1  0  0  0  0
 11 32  1  0  0  0  0
 32 33  2  0  0  0  0
  9 33  1  0  0  0  0
M  END
> <ID>
CPD_1000

$$$$
CPD_1005
  Mrv1822 09091914012D          

 21 23  0  0  0  0            999 V2000
    5.4526   -2.1582    0.0000 C   0  0  0  0  0  0  0  0  0  0  0  0
    5.3663   -1.3377    0.0000 C   0  0  0  0  0  0  0  0  0  0  0  0
    4.6127   -1.0022    0.0000 O   0  0  0  0  0  0  0  0  0  0  0  0
    4.5264   -0.1817    0.0000 C   0  0  0  0  0  0  0  0  0  0  0  0
    3.7728    0.1539    0.0000 C   0  0  0  0  0  0  0  0  0  0  0  0
    3.1053   -0.3310    0.0000 F   0  0  0  0  0  0  0  0  0  0  0  0
    3.6865    0.9744    0.0000 C   0  0  0  0  0  0  0  0  0  0  0  0
    4.3540    1.4593    0.0000 C   0  0  0  0  0  0  0  0  0  0  0  0
    5.1076    1.1237    0.0000 C   0  0  0  0  0  0  0  0  0  0  0  0
    5.1939    0.3032    0.0000 C   0  0  0  0  0  0  0  0  0  0  0  0
    5.9475   -0.0323    0.0000 Cl  0  0  0  0  0  0  0  0  0  0  0  0
    2.9328    1.3099    0.0000 C   0  0  0  0  0  0  0  0  0  0  0  0
    2.8466    2.1304    0.0000 O   0  0  0  0  0  0  0  0  0  0  0  0
    2.2654    0.8250    0.0000 N   0  0  0  0  0  0  0  0  0  0  0  0
    2.2654    0.0000    0.0000 C   0  0  0  0  0  0  0  0  0  0  0  0
    1.4808   -0.2549    0.0000 C   0  0  0  0  0  0  0  0  0  0  0  0
    0.9959    0.4125    0.0000 C   0  0  0  0  0  0  0  0  0  0  0  0
    0.4125   -0.1709    0.0000 C   0  0  0  0  0  0  0  0  0  0  0  0
   -0.1709    0.4125    0.0000 O   0  0  0  0  0  0  0  0  0  0  0  0
    0.4125    0.9959    0.0000 C   0  0  0  0  0  0  0  0  0  0  0  0
    1.4808    1.0799    0.0000 C   0  0  0  0  0  0  0  0  0  0  0  0
  1  2  1  0  0  0  0
  2  3  1  0  0  0  0
  3  4  1  0  0  0  0
  4  5  2  0  0  0  0
  5  6  1  0  0  0  0
  5  7  1  0  0  0  0
  7  8  2  0  0  0  0
  8  9  1  0  0  0  0
  9 10  2  0  0  0  0
  4 10  1  0  0  0  0
 10 11  1  0  0  0  0
  7 12  1  0  0  0  0
 12 13  2  0  0  0  0
 12 14  1  0  0  0  0
 14 15  1  0  0  0  0
 15 16  1  0  0  0  0
 16 17  1  0  0  0  0
 17 18  1  0  0  0  0
 18 19  1  0  0  0  0
 19 20  1  0  0  0  0
 17 20  1  0  0  0  0
 17 21  1  0  0  0  0
 14 21  1  0  0  0  0
M  END
> <ID>
CPD_1005

$$$$
CPD_1010
  Mrv1822 09091914012D          

 36 40  0  0  0  0            999 V2000
   -1.5074    0.1539    0.0000 F   0  0  0  0  0  0  0  0  0  0  0  0
   -1.4211    0.9744    0.0000 C   0  0  0  0  0  0  0  0  0  0  0  0
   -2.0886    1.4593    0.0000 C   0  0  0  0  0  0  0  0  0  0  0  0
   -2.0023    2.2798    0.0000 C   0  0  0  0  0  0  0  0  0  0  0  0
   -2.6698    2.7647    0.0000 Cl  0  0  0  0  0  0  0  0  0  0  0  0
   -1.2486    2.6153    0.0000 C   0  0  0  0  0  0  0  0  0  0  0  0
   -0.5812    2.1304    0.0000 C   0  0  0  0  0  0  0  0  0  0  0  0
   -0.6674    1.3099    0.0000 C   0  0  0  0  0  0  0  0  0  0  0  0
    0.0000    0.8250    0.0000 N   0  0  0  0  0  0  0  0  0  0  0  0
    0.7846    1.0799    0.0000 C   0  0  0  0  0  0  0  0  0  0  0  0
    1.2695    0.4125    0.0000 C   0  0  0  0  0  0  0  0  0  0  0  0
    1.6820    1.1270    0.0000 C   0  0  0  0  0  0  0  0  0  0  0  0
    2.5070    1.1270    0.0000 C   0  0  0  0  0  0  0  0  0  0  0  0
    2.9195    0.4125    0.0000 N   0  0  0  0  0  0  0  0  0  0  0  0
    2.5070   -0.3020    0.0000 C   0  0  0  0  0  0  0  0  0  0  0  0
    1.6820   -0.3020    0.0000 C   0  0  0  0  0  0  0  0  0  0  0  0
    3.7445    0.4125    0.0000 C   0  0  0  0  0  0  0  0  0  0  0  0
    4.1570   -0.3020    0.0000 O   0  0  0  0  0  0  0  0  0  0  0  0
    4.1570    1.1270    0.0000 C   0  0  0  0  0  0  0  0  0  0  0  0
    3.7445    1.8414    0.0000 C   0  0  0  0  0  0  0  0  0  0  0  0
    4.1570    2.5559    0.0000 C   0  0  0  0  0  0  0  0  0  0  0  0
    4.9820    2.5559    0.0000 C   0  0  0  0  0  0  0  0  0  0  0  0
    5.3945    1.8414    0.0000 C   0  0  0  0  0  0  0  0  0  0  0  0
    4.9820    1.1270    0.0000 C   0  0  0  0  0  0  0  0  0  0  0  0
    5.3945    0.4125    0.0000 S   0  0  0  0  0  0  0  0  0  0  0  0
    4.6801   -0.0000    0.0000 O   0  0  0  0  0  0  0  0  0  0  0  0
    6.1090    0.8250    0.0000 O   0  0  0  0  0  0  0  0  0  0  0  0
    5.8070   -0.3020    0.0000 C   0  0  0  0  0  0  0  0  0  0  0  0
    6.6320   -0.3020    0.0000 C   0  0  0  0  0  0  0  0  0  0  0  0
    7.0445   -1.0164    0.0000 C   0  0  0  0  0  0  0  0  0  0  0  0
    6.6320   -1.7309    0.0000 N   0  0  0  0  0  0  0  0  0  0  0  0
    5.8070   -1.7309    0.0000 C   0  0  0  0  0  0  0  0  0  0  0  0
    5.3945   -1.0164    0.0000 C   0  0  0  0  0  0  0  0  0  0  0  0
    0.7846   -0.2549    0.0000 O   0  0  0  0  0  0  0  0  0  0  0  0
   -0.0000    0.0000    0.0000 C   0  0  0  0  0  0  0  0  0  0  0  0
   -0.6674   -0.4849    0.0000 O   0  0  0  0  0  0  0  0  0  0  0  0
  1  2  1  0  0  0  0
  2  3  2  0  0  0  0
  3  4  1  0  0  0  0
  4  5  1  0  0  0  0
  4  6  2  0  0  0  0
  6  7  1  0  0  0  0
  7  8  2  0  0  0  0
  2  8  1  0  0  0  0
  8  9  1  0  0  0  0
  9 10  1  0  0  0  0
 10 11  1  0  0  0  0
 11 12  1  0  0  0  0
 12 13  1  0  0  0  0
 13 14  1  0  0  0  0
 14 15  1  0  0  0  0
 15 16  1  0  0  0  0
 11 16  1  0  0  0  0
 14 17  1  0  0  0  0
 17 18  2  0  0  0  0
 17 19  1  0  0  0  0
 19 20  2  0  0  0  0
 20 21  1  0  0  0  0
 21 22  2  0  0  0  0
 22 23  1  0  0  0  0
 23 24  2  0  0  0  0
 19 24  1  0  0  0  0
 24 25  1  0  0  0  0
 25 26  2  0  0  0  0
 25 27  2  0  0  0  0
 25 28  1  0  0  0  0
 28 29  1  0  0  0  0
 29 30  1  0  0  0  0
 30 31  1  0  0  0  0
 31 32  1  0  0  0  0
 32 33  1  0  0  0  0
 28 33  1  0  0  0  0
 11 34  1  0  0  0  0
 34 35  1  0  0  0  0
  9 35  1  0  0  0  0
 35 36  2  0  0  0  0
M  END
> <ID>
CPD_1010

$$$$
CPD_1015
  Mrv1822 09091914012D          

 31 35  0  0  0  0            999 V2000
   -7.7738    6.0777    0.0000 F   0  0  0  0  0  0  0  0  0  0  0  0
   -7.0201    6.4133    0.0000 C   0  0  0  0  0  0  0  0  0  0  0  0
   -6.9339    7.2338    0.0000 C   0  0  0  0  0  0  0  0  0  0  0  0
   -6.1802    7.5693    0.0000 C   0  0  0  0  0  0  0  0  0  0  0  0
   -6.0940    8.3898    0.0000 Cl  0  0  0  0  0  0  0  0  0  0  0  0
   -5.5128    7.0844    0.0000 C   0  0  0  0  0  0  0  0  0  0  0  0
   -5.5990    6.2639    0.0000 C   0  0  0  0  0  0  0  0  0  0  0  0
   -6.3527    5.9284    0.0000 C   0  0  0  0  0  0  0  0  0  0  0  0
   -6.4389    5.1079    0.0000 N   0  0  0  0  0  0  0  0  0  0  0  0
   -5.8258    4.5559    0.0000 C   0  0  0  0  0  0  0  0  0  0  0  0
   -6.1614    3.8022    0.0000 C   0  0  0  0  0  0  0  0  0  0  0  0
   -5.3364    3.8022    0.0000 C   0  0  0  0  0  0  0  0  0  0  0  0
   -4.9239    3.0877    0.0000 C   0  0  0  0  0  0  0  0  0  0  0  0
   -5.3364    2.3732    0.0000 N   0  0  0  0  0  0  0  0  0  0  0  0
   -6.1614    2.3732    0.0000 C   0  0  0  0  0  0  0  0  0  0  0  0
   -6.5739    3.0877    0.0000 C   0  0  0  0  0  0  0  0  0  0  0  0
   -4.9239    1.6588    0.0000 C   0  0  0  0  0  0  0  0  0  0  0  0
   -5.3364    0.9443    0.0000 O   0  0  0  0  0  0  0  0  0  0  0  0
   -4.0989    1.6588    0.0000 C   0  0  0  0  0  0  0  0  0  0  0  0
   -3.6140    0.9913    0.0000 C   0  0  0  0  0  0  0  0  0  0  0  0
   -2.8293    1.2463    0.0000 C   0  0  0  0  0  0  0  0  0  0  0  0
   -2.8293    2.0713    0.0000 C   0  0  0  0  0  0  0  0  0  0  0  0
   -3.6140    2.3262    0.0000 O   0  0  0  0  0  0  0  0  0  0  0  0
   -2.1149    2.4838    0.0000 C   0  0  0  0  0  0  0  0  0  0  0  0
   -1.4004    2.0713    0.0000 C   0  0  0  0  0  0  0  0  0  0  0  0
   -1.4004    1.2463    0.0000 C   0  0  0  0  0  0  0  0  0  0  0  0
   -0.6859    0.8338    0.0000 Br  0  0  0  0  0  0  0  0  0  0  0  0
   -2.1149    0.8338    0.0000 C   0  0  0  0  0  0  0  0  0  0  0  0
   -6.9819    3.8884    0.0000 O   0  0  0  0  0  0  0  0  0  0  0  0
   -7.1534    4.6954    0.0000 C   0  0  0  0  0  0  0  0  0  0  0  0
   -7.9071    5.0309    0.0000 O   0  0  0  0  0  0  0  0  0  0  0  0
  1  2  1  0  0  0  0
  2  3  2  0  0  0  0
  3  4  1  0  0  0  0
  4  5  1  0  0  0  0
  4  6  2  0  0  0  0
  6  7  1  0  0  0  0
  7  8  2  0  0  0  0
  2  8  1  0  0  0  0
  8  9  1  0  0  0  0
  9 10  1  0  0  0  0
 10 11  1  0  0  0  0
 11 12  1  0  0  0  0
 12 13  1  0  0  0  0
 13 14  1  0  0  0  0
 14 15  1  0  0  0  0
 15 16  1  0  0  0  0
 11 16  1  0  0  0  0
 14 17  1  0  0  0  0
 17 18  2  0  0  0  0
 17 19  1  0  0  0  0
 19 20  2  0  0  0  0
 20 21  1  0  0  0  0
 21 22  2  0  0  0  0
 22 23  1  0  0  0  0
 19 23  1  0  0  0  0
 22 24  1  0  0  0  0
 24 25  2  0  0  0  0
 25 26  1  0  0  0  0
 26 27  1  0  0  0  0
 26 28  2  0  0  0  0
 21 28  1  0  0  0  0
 11 29  1  0  0  0  0
 29 30  1  0  0  0  0
  9 30  1  0  0  0  0
 30 31  2  0  0  0  0
M  END
> <ID>
CPD_1015

$$$$
CPD_1020
  Mrv1822 09091914012D          

 22 24  0  0  0  0            999 V2000
    4.1570    1.1270    0.0000 C   0  0  0  0  0  0  0  0  0  0  0  0
    3.7445    0.4125    0.0000 C   0  0  0  0  0  0  0  0  0  0  0  0
    4.1570   -0.3020    0.0000 O   0  0  0  0  0  0  0  0  0  0  0  0
    2.9195    0.4125    0.0000 N   0  0  0  0  0  0  0  0  0  0  0  0
    2.5070   -0.3020    0.0000 C   0  0  0  0  0  0  0  0  0  0  0  0
    1.6820   -0.3020    0.0000 C   0  0  0  0  0  0  0  0  0  0  0  0
    1.2695    0.4125    0.0000 C   0  0  0  0  0  0  0  0  0  0  0  0
    0.7846   -0.2549    0.0000 C   0  0  0  0  0  0  0  0  0  0  0  0
    0.0000   -0.0000    0.0000 N   0  0  0  0  0  0  0  0  0  0  0  0
   -0.0000    0.8250    0.0000 C   0  0  0  0  0  0  0  0  0  0  0  0
   -0.6674    1.3099    0.0000 O   0  0  0  0  0  0  0  0  0  0  0  0
    0.7846    1.0799    0.0000 O   0  0  0  0  0  0  0  0  0  0  0  0
   -0.6674   -0.4849    0.0000 C   0  0  0  0  0  0  0  0  0  0  0  0
   -0.5812   -1.3054    0.0000 C   0  0  0  0  0  0  0  0  0  0  0  0
   -1.2486   -1.7903    0.0000 C   0  0  0  0  0  0  0  0  0  0  0  0
   -2.0023   -1.4548    0.0000 C   0  0  0  0  0  0  0  0  0  0  0  0
   -2.6698   -1.9397    0.0000 Cl  0  0  0  0  0  0  0  0  0  0  0  0
   -2.0886   -0.6343    0.0000 C   0  0  0  0  0  0  0  0  0  0  0  0
   -1.4211   -0.1494    0.0000 C   0  0  0  0  0  0  0  0  0  0  0  0
   -1.5074    0.6711    0.0000 F   0  0  0  0  0  0  0  0  0  0  0  0
    1.6820    1.1270    0.0000 C   0  0  0  0  0  0  0  0  0  0  0  0
    2.5070    1.1270    0.0000 C   0  0  0  0  0  0  0  0  0  0  0  0
  1  2  1  0  0  0  0
  2  3  2  0  0  0  0
  2  4  1  0  0  0  0
  4  5  1  0  0  0  0
  5  6  1  0  0  0  0
  6  7  1  0  0  0  0
  7  8  1  0  0  0  0
  8  9  1  0  0  0  0
  9 10  1  0  0  0  0
 10 11  2  0  0  0  0
 10 12  1  0  0  0  0
  7 12  1  0  0  0  0
  9 13  1  0  0  0  0
 13 14  2  0  0  0  0
 14 15  1  0  0  0  0
 15 16  2  0  0  0  0
 16 17  1  0  0  0  0
 16 18  1  0  0  0  0
 18 19  2  0  0  0  0
 13 19  1  0  0  0  0
 19 20  1  0  0  0  0
  7 21  1  0  0  0  0
 21 22  1  0  0  0  0
  4 22  1  0  0  0  0
M  END
> <ID>
CPD_1020

$$$$
CPD_1025
  Mrv1822 09091914012D          

 38 41  0  0  1  0            999 V2000
   -4.2868   -0.8250    0.0000 C   0  0  0  0  0  0  0  0  0  0  0  0
   -3.5724   -0.4125    0.0000 O   0  0  0  0  0  0  0  0  0  0  0  0
   -2.8579   -0.8250    0.0000 C   0  0  0  0  0  0  0  0  0  0  0  0
   -2.1434   -0.4125    0.0000 C   0  0  0  0  0  0  0  0  0  0  0  0
   -1.4289   -0.8250    0.0000 C   0  0  0  0  0  0  0  0  0  0  0  0
   -1.4289   -1.6500    0.0000 C   0  0  0  0  0  0  0  0  0  0  0  0
   -2.1434   -2.0625    0.0000 C   0  0  0  0  0  0  0  0  0  0  0  0
   -2.8579   -1.6500    0.0000 C   0  0  0  0  0  0  0  0  0  0  0  0
   -0.7145   -2.0625    0.0000 C   0  0  0  0  0  0  0  0  0  0  0  0
    0.0000   -1.6500    0.0000 N   0  0  0  0  0  0  0  0  0  0  0  0
    0.7145   -2.0625    0.0000 C   0  0  0  0  0  0  0  0  0  0  0  0
    0.7145   -2.8875    0.0000 O   0  0  0  0  0  0  0  0  0  0  0  0
    1.4289   -1.6500    0.0000 C   0  0  0  0  0  0  0  0  0  0  0  0
    2.1434   -2.0625    0.0000 C   0  0  0  0  0  0  0  0  0  0  0  0
    2.8579   -1.6500    0.0000 C   0  0  2  0  0  0  0  0  0  0  0  0
    2.8579   -0.8250    0.0000 N   0  0  0  0  0  0  0  0  0  0  0  0
    3.5724   -2.0625    0.0000 C   0  0  0  0  0  0  0  0  0  0  0  0
    3.5724   -2.8875    0.0000 O   0  0  0  0  0  0  0  0  0  0  0  0
    4.2868   -1.6500    0.0000 N   0  0  0  0  0  0  0  0  0  0  0  0
    5.0013   -2.0625    0.0000 C   0  0  0  0  0  0  0  0  0  0  0  0
    5.7158   -1.6500    0.0000 C   0  0  0  0  0  0  0  0  0  0  0  0
    6.4302   -2.0625    0.0000 C   0  0  0  0  0  0  0  0  0  0  0  0
    6.4302   -2.8875    0.0000 C   0  0  0  0  0  0  0  0  0  0  0  0
    7.1447   -3.3000    0.0000 O   0  0  0  0  0  0  0  0  0  0  0  0
    7.1447   -4.1250    0.0000 C   0  0  0  0  0  0  0  0  0  0  0  0
    7.7281   -4.7084    0.0000 C   0  0  0  0  0  0  0  0  0  0  0  0
    7.1447   -5.2917    0.0000 O   0  0  0  0  0  0  0  0  0  0  0  0
    6.5613   -4.7084    0.0000 C   0  0  0  0  0  0  0  0  0  0  0  0
    5.7158   -3.3000    0.0000 C   0  0  0  0  0  0  0  0  0  0  0  0
    5.0013   -2.8875    0.0000 C   0  0  0  0  0  0  0  0  0  0  0  0
   -0.7145   -2.8875    0.0000 C   0  0  0  0  0  0  0  0  0  0  0  0
    0.0000   -3.3000    0.0000 C   0  0  0  0  0  0  0  0  0  0  0  0
    0.0000   -4.1250    0.0000 C   0  0  0  0  0  0  0  0  0  0  0  0
   -0.7145   -4.5375    0.0000 C   0  0  0  0  0  0  0  0  0  0  0  0
   -0.7145   -5.3625    0.0000 O   0  0  0  0  0  0  0  0  0  0  0  0
   -1.4289   -5.7750    0.0000 C   0  0  0  0  0  0  0  0  0  0  0  0
   -1.4289   -4.1250    0.0000 C   0  0  0  0  0  0  0  0  0  0  0  0
   -1.4289   -3.3000    0.0000 C   0  0  0  0  0  0  0  0  0  0  0  0
  1  2  1  0  0  0  0
  2  3  1  0  0  0  0
  3  4  2  0  0  0  0
  4  5  1  0  0  0  0
  5  6  2  0  0  0  0
  6  7  1  0  0  0  0
  7  8  2  0  0  0  0
  3  8  1  0  0  0  0
  6  9  1  0  0  0  0
  9 10  1  0  0  0  0
 10 11  1  0  0  0  0
 11 12  2  0  0  0  0
 11 13  1  0  0  0  0
 13 14  1  0  0  0  0
 15 14  1  0  0  0  0
 15 16  1  6  0  0  0
 15 17  1  0  0  0  0
 17 18  2  0  0  0  0
 17 19  1  0  0  0  0
 19 20  1  0  0  0  0
 20 21  2  0  0  0  0
 21 22  1  0  0  0  0
 22 23  2  0  0  0  0
 23 24  1  0  0  0  0
 24 25  1  0  0  0  0
 25 26  1  0  0  0  0
 26 27  1  0  0  0  0
 27 28  1  0  0  0  0
 25 28  1  0  0  0  0
 23 29  1  0  0  0  0
 29 30  2  0  0  0  0
 20 30  1  0  0  0  0
  9 31  1  0  0  0  0
 31 32  2  0  0  0  0
 32 33  1  0  0  0  0
 33 34  2  0  0  0  0
 34 35  1  0  0  0  0
 35 36  1  0  0  0  0
 34 37  1  0  0  0  0
 37 38  2  0  0  0  0
 31 38  1  0  0  0  0
M  END
> <ID>
CPD_1025

$$$$
CPD_1030
  Mrv1822 09091914012D          

 30 33  0  0  0  0            999 V2000
   -0.7145    2.0625    0.0000 C   0  0  0  0  0  0  0  0  0  0  0  0
   -0.7145    1.2375    0.0000 C   0  0  0  0  0  0  0  0  0  0  0  0
    0.0000    0.8250    0.0000 O   0  0  0  0  0  0  0  0  0  0  0  0
    0.0000    0.0000    0.0000 C   0  0  0  0  0  0  0  0  0  0  0  0
   -0.7145   -0.4125    0.0000 O   0  0  0  0  0  0  0  0  0  0  0  0
    0.7145   -0.4125    0.0000 C   0  0  0  0  0  0  0  0  0  0  0  0
    1.4289    0.0000    0.0000 N   0  0  0  0  0  0  0  0  0  0  0  0
    2.1434   -0.4125    0.0000 C   0  0  0  0  0  0  0  0  0  0  0  0
    2.8579    0.0000    0.0000 C   0  0  0  0  0  0  0  0  0  0  0  0
    2.8579    0.8250    0.0000 Cl  0  0  0  0  0  0  0  0  0  0  0  0
    3.5724   -0.4125    0.0000 C   0  0  0  0  0  0  0  0  0  0  0  0
    3.5724   -1.2375    0.0000 C   0  0  0  0  0  0  0  0  0  0  0  0
    2.8579   -1.6500    0.0000 C   0  0  0  0  0  0  0  0  0  0  0  0
    2.1434   -1.2375    0.0000 C   0  0  0  0  0  0  0  0  0  0  0  0
    1.4289   -1.6500    0.0000 C   0  0  0  0  0  0  0  0  0  0  0  0
    0.7145   -1.2375    0.0000 C   0  0  0  0  0  0  0  0  0  0  0  0
    0.0000   -1.6500    0.0000 C   0  0  0  0  0  0  0  0  0  0  0  0
   -0.7145   -1.2375    0.0000 O   0  0  0  0  0  0  0  0  0  0  0  0
    0.0000   -2.4750    0.0000 N   0  0  0  0  0  0  0  0  0  0  0  0
   -0.7145   -2.8875    0.0000 C   0  0  0  0  0  0  0  0  0  0  0  0
   -0.7145   -3.7125    0.0000 C   0  0  0  0  0  0  0  0  0  0  0  0
   -1.4289   -4.1250    0.0000 C   0  0  0  0  0  0  0  0  0  0  0  0
   -2.1434   -3.7125    0.0000 C   0  0  0  0  0  0  0  0  0  0  0  0
   -2.8579   -4.1250    0.0000 O   0  0  0  0  0  0  0  0  0  0  0  0
   -2.8579   -4.9500    0.0000 C   0  0  0  0  0  0  0  0  0  0  0  0
   -2.2745   -5.5334    0.0000 C   0  0  0  0  0  0  0  0  0  0  0  0
   -2.8579   -6.1167    0.0000 O   0  0  0  0  0  0  0  0  0  0  0  0
   -3.4412   -5.5334    0.0000 C   0  0  0  0  0  0  0  0  0  0  0  0
   -2.1434   -2.8875    0.0000 C   0  0  0  0  0  0  0  0  0  0  0  0
   -1.4289   -2.4750    0.0000 C   0  0  0  0  0  0  0  0  0  0  0  0
  1  2  1  0  0  0  0
  2  3  1  0  0  0  0
  3  4  1  0  0  0  0
  4  5  2  0  0  0  0
  4  6  1  0  0  0  0
  6  7  2  0  0  0  0
  7  8  1  0  0  0  0
  8  9  2  0  0  0  0
  9 10  1  0  0  0  0
  9 11  1  0  0  0  0
 11 12  2  0  0  0  0
 12 13  1  0  0  0  0
 13 14  2  0  0  0  0
  8 14  1  0  0  0  0
 14 15  1  0  0  0  0
 15 16  2  0  0  0  0
  6 16  1  0  0  0  0
 16 17  1  0  0  0  0
 17 18  2  0  0  0  0
 17 19  1  0  0  0  0
 19 20  1  0  0  0  0
 20 21  2  0  0  0  0
 21 22  1  0  0  0  0
 22 23  2  0  0  0  0
 23 24  1  0  0  0  0
 24 25  1  0  0  0  0
 25 26  1  0  0  0  0
 26 27  1  0  0  0  0
 27 28  1  0  0  0  0
 25 28  1  0  0  0  0
 23 29  1  0  0  0  0
 29 30  2  0  0  0  0
 20 30  1  0  0  0  0
M  END
> <ID>
CPD_1030

$$$$
CPD_1035
  Mrv1822 09091914012D          

 30 33  0  0  0  0            999 V2000
   -3.3631   -5.4833    0.0000 C   0  0  0  0  0  0  0  0  0  0  0  0
   -2.6486   -5.0708    0.0000 O   0  0  0  0  0  0  0  0  0  0  0  0
   -2.6486   -4.2458    0.0000 C   0  0  0  0  0  0  0  0  0  0  0  0
   -3.3631   -3.8333    0.0000 C   0  0  0  0  0  0  0  0  0  0  0  0
   -3.3631   -3.0083    0.0000 C   0  0  0  0  0  0  0  0  0  0  0  0
   -4.0776   -2.5958    0.0000 N   0  0  0  0  0  0  0  0  0  0  0  0
   -4.0776   -1.7708    0.0000 C   0  0  0  0  0  0  0  0  0  0  0  0
   -3.3631   -1.3583    0.0000 O   0  0  0  0  0  0  0  0  0  0  0  0
   -4.7920   -1.3583    0.0000 C   0  0  0  0  0  0  0  0  0  0  0  0
   -5.5065   -1.7708    0.0000 C   0  0  0  0  0  0  0  0  0  0  0  0
   -6.2210   -1.3583    0.0000 C   0  0  0  0  0  0  0  0  0  0  0  0
   -6.9354   -1.7708    0.0000 O   0  0  0  0  0  0  0  0  0  0  0  0
   -6.2210   -0.5333    0.0000 C   0  0  0  0  0  0  0  0  0  0  0  0
   -5.5065   -0.1208    0.0000 C   0  0  0  0  0  0  0  0  0  0  0  0
   -4.7920   -0.5333    0.0000 C   0  0  0  0  0  0  0  0  0  0  0  0
   -6.9354   -0.1208    0.0000 N   0  0  0  0  0  0  0  0  0  0  0  0
   -7.6891   -0.4564    0.0000 C   0  0  0  0  0  0  0  0  0  0  0  0
   -7.8606   -1.2633    0.0000 C   0  0  0  0  0  0  0  0  0  0  0  0
   -8.2412    0.1567    0.0000 C   0  0  0  0  0  0  0  0  0  0  0  0
   -7.8287    0.8712    0.0000 C   0  0  0  0  0  0  0  0  0  0  0  0
   -7.0217    0.6997    0.0000 C   0  0  0  0  0  0  0  0  0  0  0  0
   -6.4086    1.2517    0.0000 C   0  0  0  0  0  0  0  0  0  0  0  0
   -2.6486   -2.5958    0.0000 C   0  0  0  0  0  0  0  0  0  0  0  0
   -1.9341   -3.0083    0.0000 C   0  0  0  0  0  0  0  0  0  0  0  0
   -1.9341   -3.8333    0.0000 C   0  0  0  0  0  0  0  0  0  0  0  0
   -1.2197   -4.2458    0.0000 O   0  0  0  0  0  0  0  0  0  0  0  0
   -1.2197   -5.0708    0.0000 C   0  0  0  0  0  0  0  0  0  0  0  0
   -0.6363   -5.6542    0.0000 C   0  0  0  0  0  0  0  0  0  0  0  0
   -1.2197   -6.2375    0.0000 O   0  0  0  0  0  0  0  0  0  0  0  0
   -1.8030   -5.6542    0.0000 C   0  0  0  0  0  0  0  0  0  0  0  0
  1  2  1  0  0  0  0
  2  3  1  0  0  0  0
  3  4  2  0  0  0  0
  4  5  1  0  0  0  0
  5  6  1  0  0  0  0
  6  7  1  0  0  0  0
  7  8  2  0  0  0  0
  7  9  1  0  0  0  0
  9 10  2  0  0  0  0
 10 11  1  0  0  0  0
 11 12  1  0  0  0  0
 11 13  2  0  0  0  0
 13 14  1  0  0  0  0
 14 15  2  0  0  0  0
  9 15  1  0  0  0  0
 13 16  1  0  0  0  0
 16 17  1  0  0  0  0
 17 18  1  0  0  0  0
 17 19  2  0  0  0  0
 19 20  1  0  0  0  0
 20 21  2  0  0  0  0
 16 21  1  0  0  0  0
 21 22  1  0  0  0  0
  5 23  2  0  0  0  0
 23 24  1  0  0  0  0
 24 25  2  0  0  0  0
  3 25  1  0  0  0  0
 25 26  1  0  0  0  0
 26 27  1  0  0  0  0
 27 28  1  0  0  0  0
 28 29  1  0  0  0  0
 29 30  1  0  0  0  0
 27 30  1  0  0  0  0
M  END
> <ID>
CPD_1035

$$$$
CPD_1040
  Mrv1822 09091914012D          

 22 24  0  0  0  0            999 V2000
    0.0000   -1.6500    0.0000 C   0  0  0  0  0  0  0  0  0  0  0  0
    0.7145   -1.2375    0.0000 O   0  0  0  0  0  0  0  0  0  0  0  0
    0.7145   -0.4125    0.0000 C   0  0  0  0  0  0  0  0  0  0  0  0
    0.0000    0.0000    0.0000 C   0  0  0  0  0  0  0  0  0  0  0  0
    0.0000    0.8250    0.0000 C   0  0  0  0  0  0  0  0  0  0  0  0
   -0.7145    1.2375    0.0000 N   0  0  0  0  0  0  0  0  0  0  0  0
   -0.7145    2.0625    0.0000 C   0  0  0  0  0  0  0  0  0  0  0  0
    0.0000    2.4750    0.0000 O   0  0  0  0  0  0  0  0  0  0  0  0
   -1.4289    2.4750    0.0000 C   0  0  0  0  0  0  0  0  0  0  0  0
   -2.1826    2.1394    0.0000 C   0  0  0  0  0  0  0  0  0  0  0  0
   -2.3541    1.3325    0.0000 N   0  0  0  0  0  0  0  0  0  0  0  0
   -2.7346    2.7525    0.0000 N   0  0  0  0  0  0  0  0  0  0  0  0
   -2.3221    3.4670    0.0000 N   0  0  0  0  0  0  0  0  0  0  0  0
   -1.5152    3.2955    0.0000 C   0  0  0  0  0  0  0  0  0  0  0  0
    0.7145    1.2375    0.0000 C   0  0  0  0  0  0  0  0  0  0  0  0
    1.4289    0.8250    0.0000 C   0  0  0  0  0  0  0  0  0  0  0  0
    1.4289    0.0000    0.0000 C   0  0  0  0  0  0  0  0  0  0  0  0
    2.1434   -0.4125    0.0000 O   0  0  0  0  0  0  0  0  0  0  0  0
    2.1434   -1.2375    0.0000 C   0  0  0  0  0  0  0  0  0  0  0  0
    2.7268   -1.8209    0.0000 C   0  0  0  0  0  0  0  0  0  0  0  0
    2.1434   -2.4042    0.0000 O   0  0  0  0  0  0  0  0  0  0  0  0
    1.5600   -1.8209    0.0000 C   0  0  0  0  0  0  0  0  0  0  0  0
  1  2  1  0  0  0  0
  2  3  1  0  0  0  0
  3  4  2  0  0  0  0
  4  5  1  0  0  0  0
  5  6  1  0  0  0  0
  6  7  1  0  0  0  0
  7  8  2  0  0  0  0
  7  9  1  0  0  0  0
  9 10  2  0  0  0  0
 10 11  1  0  0  0  0
 10 12  1  0  0  0  0
 12 13  1  0  0  0  0
 13 14  2  0  0  0  0
  9 14  1  0  0  0  0
  5 15  2  0  0  0  0
 15 16  1  0  0  0  0
 16 17  2  0  0  0  0
  3 17  1  0  0  0  0
 17 18  1  0  0  0  0
 18 19  1  0  0  0  0
 19 20  1  0  0  0  0
 20 21  1  0  0  0  0
 21 22  1  0  0  0  0
 19 22  1  0  0  0  0
M  END
> <ID>
CPD_1040

$$$$
CPD_1045
  Mrv1822 09091914012D          

 26 28  0  0  0  0            999 V2000
    4.4961   10.3625    0.0000 C   0  0  0  0  0  0  0  0  0  0  0  0
    4.4961    9.5375    0.0000 O   0  0  0  0  0  0  0  0  0  0  0  0
    3.7816    9.1250    0.0000 C   0  0  0  0  0  0  0  0  0  0  0  0
    3.0671    9.5375    0.0000 O   0  0  0  0  0  0  0  0  0  0  0  0
    3.7816    8.3000    0.0000 C   0  0  0  0  0  0  0  0  0  0  0  0
    4.4961    7.8875    0.0000 C   0  0  0  0  0  0  0  0  0  0  0  0
    4.4961    7.0625    0.0000 C   0  0  0  0  0  0  0  0  0  0  0  0
    3.7816    6.6500    0.0000 C   0  0  0  0  0  0  0  0  0  0  0  0
    3.0671    7.0625    0.0000 C   0  0  0  0  0  0  0  0  0  0  0  0
    3.0671    7.8875    0.0000 N   0  0  0  0  0  0  0  0  0  0  0  0
    2.3527    6.6500    0.0000 C   0  0  0  0  0  0  0  0  0  0  0  0
    1.6382    7.0625    0.0000 O   0  0  0  0  0  0  0  0  0  0  0  0
    2.3527    5.8250    0.0000 N   0  0  0  0  0  0  0  0  0  0  0  0
    1.6382    5.4125    0.0000 C   0  0  0  0  0  0  0  0  0  0  0  0
    1.6382    4.5875    0.0000 C   0  0  0  0  0  0  0  0  0  0  0  0
    0.9237    4.1750    0.0000 C   0  0  0  0  0  0  0  0  0  0  0  0
    0.2093    4.5875    0.0000 C   0  0  0  0  0  0  0  0  0  0  0  0
   -0.5052    4.1750    0.0000 O   0  0  0  0  0  0  0  0  0  0  0  0
   -0.5052    3.3500    0.0000 C   0  0  0  0  0  0  0  0  0  0  0  0
    0.0782    2.7667    0.0000 C   0  0  0  0  0  0  0  0  0  0  0  0
   -0.5052    2.1833    0.0000 O   0  0  0  0  0  0  0  0  0  0  0  0
   -1.0886    2.7667    0.0000 C   0  0  0  0  0  0  0  0  0  0  0  0
    0.2093    5.4125    0.0000 C   0  0  0  0  0  0  0  0  0  0  0  0
   -0.5052    5.8250    0.0000 O   0  0  0  0  0  0  0  0  0  0  0  0
   -0.5052    6.6500    0.0000 C   0  0  0  0  0  0  0  0  0  0  0  0
    0.9237    5.8250    0.0000 C   0  0  0  0  0  0  0  0  0  0  0  0
  1  2  1  0  0  0  0
  2  3  1  0  0  0  0
  3  4  2  0  0  0  0
  3  5  1  0  0  0  0
  5  6  2  0  0  0  0
  6  7  1  0  0  0  0
  7  8  2  0  0  0  0
  8  9  1  0  0  0  0
  9 10  2  0  0  0  0
  5 10  1  0  0  0  0
  9 11  1  0  0  0  0
 11 12  2  0  0  0  0
 11 13  1  0  0  0  0
 13 14  1  0  0  0  0
 14 15  2  0  0  0  0
 15 16  1  0  0  0  0
 16 17  2  0  0  0  0
 17 18  1  0  0  0  0
 18 19  1  0  0  0  0
 19 20  1  0  0  0  0
 20 21  1  0  0  0  0
 21 22  1  0  0  0  0
 19 22  1  0  0  0  0
 17 23  1  0  0  0  0
 23 24  1  0  0  0  0
 24 25  1  0  0  0  0
 23 26  2  0  0  0  0
 14 26  1  0  0  0  0
M  END
> <ID>
CPD_1045

$$$$
CPD_1050
  Mrv1822 09091914012D          

 30 33  0  0  0  0            999 V2000
   -2.6462    2.1599    0.0000 C   0  0  0  0  0  0  0  0  0  0  0  0
   -3.0587    1.4455    0.0000 O   0  0  0  0  0  0  0  0  0  0  0  0
   -2.6462    0.7310    0.0000 C   0  0  0  0  0  0  0  0  0  0  0  0
   -1.8212    0.7310    0.0000 C   0  0  0  0  0  0  0  0  0  0  0  0
   -1.4087    0.0165    0.0000 C   0  0  0  0  0  0  0  0  0  0  0  0
   -0.5837    0.0165    0.0000 N   0  0  0  0  0  0  0  0  0  0  0  0
   -0.1712   -0.6979    0.0000 C   0  0  0  0  0  0  0  0  0  0  0  0
   -0.5837   -1.4124    0.0000 O   0  0  0  0  0  0  0  0  0  0  0  0
    0.6538   -0.6979    0.0000 C   0  0  0  0  0  0  0  0  0  0  0  0
    1.1387   -0.0305    0.0000 C   0  0  0  0  0  0  0  0  0  0  0  0
    1.9233   -0.2854    0.0000 C   0  0  0  0  0  0  0  0  0  0  0  0
    2.6378    0.1271    0.0000 C   0  0  0  0  0  0  0  0  0  0  0  0
    3.3523   -0.2854    0.0000 C   0  0  0  0  0  0  0  0  0  0  0  0
    4.0668    0.1271    0.0000 O   0  0  0  0  0  0  0  0  0  0  0  0
    4.7812   -0.2854    0.0000 C   0  0  0  0  0  0  0  0  0  0  0  0
    5.4957   -0.6979    0.0000 F   0  0  0  0  0  0  0  0  0  0  0  0
    5.1937    0.4290    0.0000 F   0  0  0  0  0  0  0  0  0  0  0  0
    4.3687   -0.9999    0.0000 F   0  0  0  0  0  0  0  0  0  0  0  0
    3.3523   -1.1104    0.0000 C   0  0  0  0  0  0  0  0  0  0  0  0
    2.6378   -1.5229    0.0000 C   0  0  0  0  0  0  0  0  0  0  0  0
    1.9233   -1.1104    0.0000 C   0  0  0  0  0  0  0  0  0  0  0  0
    1.1387   -1.3654    0.0000 N   0  0  0  0  0  0  0  0  0  0  0  0
   -1.8212   -0.6979    0.0000 C   0  0  0  0  0  0  0  0  0  0  0  0
   -2.6462   -0.6979    0.0000 C   0  0  0  0  0  0  0  0  0  0  0  0
   -3.0587    0.0165    0.0000 C   0  0  0  0  0  0  0  0  0  0  0  0
   -3.8837    0.0165    0.0000 O   0  0  0  0  0  0  0  0  0  0  0  0
   -4.2962    0.7310    0.0000 C   0  0  0  0  0  0  0  0  0  0  0  0
   -5.0931    0.9445    0.0000 C   0  0  0  0  0  0  0  0  0  0  0  0
   -4.8796    1.7414    0.0000 O   0  0  0  0  0  0  0  0  0  0  0  0
   -4.0827    1.5279    0.0000 C   0  0  0  0  0  0  0  0  0  0  0  0
  1  2  1  0  0  0  0
  2  3  1  0  0  0  0
  3  4  2  0  0  0  0
  4  5  1  0  0  0  0
  5  6  1  0  0  0  0
  6  7  1  0  0  0  0
  7  8  2  0  0  0  0
  7  9  1  0  0  0  0
  9 10  2  0  0  0  0
 10 11  1  0  0  0  0
 11 12  2  0  0  0  0
 12 13  1  0  0  0  0
 13 14  1  0  0  0  0
 14 15  1  0  0  0  0
 15 16  1  0  0  0  0
 15 17  1  0  0  0  0
 15 18  1  0  0  0  0
 13 19  2  0  0  0  0
 19 20  1  0  0  0  0
 20 21  2  0  0  0  0
 11 21  1  0  0  0  0
 21 22  1  0  0  0  0
  9 22  1  0  0  0  0
  5 23  2  0  0  0  0
 23 24  1  0  0  0  0
 24 25  2  0  0  0  0
  3 25  1  0  0  0  0
 25 26  1  0  0  0  0
 26 27  1  0  0  0  0
 27 28  1  0  0  0  0
 28 29  1  0  0  0  0
 29 30  1  0  0  0  0
 27 30  1  0  0  0  0
M  END
> <ID>
CPD_1050

$$$$
CPD_1055
  Mrv1822 09091914012D          

 38 39  0  0  1  0            999 V2000
   -0.6595   -2.0942    0.0000 C   0  0  0  0  0  0  0  0  0  0  0  0
   -1.3740   -1.6817    0.0000 C   0  0  0  0  0  0  0  0  0  0  0  0
   -1.3740   -0.8567    0.0000 C   0  0  0  0  0  0  0  0  0  0  0  0
   -0.6595   -0.4442    0.0000 C   0  0  0  0  0  0  0  0  0  0  0  0
    0.0550   -0.8567    0.0000 C   0  0  0  0  0  0  0  0  0  0  0  0
    0.0550   -1.6817    0.0000 C   0  0  0  0  0  0  0  0  0  0  0  0
   -0.6595    0.3808    0.0000 N   0  0  0  0  0  0  0  0  0  0  0  0
    0.0550    0.7933    0.0000 C   0  0  0  0  0  0  0  0  0  0  0  0
    0.0550    1.6183    0.0000 C   0  0  0  0  0  0  0  0  0  0  0  0
    0.7694    2.0308    0.0000 C   0  0  0  0  0  0  0  0  0  0  0  0
    1.4839    1.6183    0.0000 C   0  0  0  0  0  0  0  0  0  0  0  0
    1.4839    0.7933    0.0000 C   0  0  0  0  0  0  0  0  0  0  0  0
    0.7694    0.3808    0.0000 C   0  0  0  0  0  0  0  0  0  0  0  0
    3.8571   -0.9537    0.0000 C   0  0  0  0  0  0  0  0  0  0  0  0
    4.4092   -0.3406    0.0000 C   0  0  0  0  0  0  0  0  0  0  0  0
    4.1542    0.4440    0.0000 N   0  0  0  0  0  0  0  0  0  0  0  0
    3.3696    0.6989    0.0000 N   0  0  0  0  0  0  0  0  0  0  0  0
    3.3696    1.5239    0.0000 C   0  0  0  0  0  0  0  0  0  0  0  0
    4.1542    1.7789    0.0000 C   0  0  0  0  0  0  0  0  0  0  0  0
    4.4092    2.5635    0.0000 Cl  0  0  0  0  0  0  0  0  0  0  0  0
    4.6392    1.1114    0.0000 C   0  0  0  0  0  0  0  0  0  0  0  0
    5.4642    1.1114    0.0000 C   0  0  0  0  0  0  0  0  0  0  0  0
    5.8767    0.3970    0.0000 N   0  0  0  0  0  0  0  0  0  0  0  0
    6.7017    0.3970    0.0000 C   0  0  0  0  0  0  0  0  0  0  0  0
    7.1142    1.1114    0.0000 O   0  0  0  0  0  0  0  0  0  0  0  0
    7.1142   -0.3175    0.0000 C   0  0  0  0  0  0  0  0  0  0  0  0
    7.9392   -0.3175    0.0000 C   0  0  1  0  0  0  0  0  0  0  0  0
    8.3517   -1.0320    0.0000 N   0  0  0  0  0  0  0  0  0  0  0  0
    9.1767   -1.0320    0.0000 C   0  0  0  0  0  0  0  0  0  0  0  0
    9.5892   -0.3175    0.0000 O   0  0  0  0  0  0  0  0  0  0  0  0
    9.5892   -1.7464    0.0000 O   0  0  0  0  0  0  0  0  0  0  0  0
   10.4142   -1.7464    0.0000 C   0  0  0  0  0  0  0  0  0  0  0  0
   11.2392   -1.7464    0.0000 C   0  0  0  0  0  0  0  0  0  0  0  0
   10.4142   -2.5714    0.0000 C   0  0  0  0  0  0  0  0  0  0  0  0
   10.4142   -0.9214    0.0000 C   0  0  0  0  0  0  0  0  0  0  0  0
    8.3517    0.3970    0.0000 C   0  0  0  0  0  0  0  0  0  0  0  0
    7.9392    1.1114    0.0000 O   0  0  0  0  0  0  0  0  0  0  0  0
    9.1767    0.3970    0.0000 O   0  0  0  0  0  0  0  0  0  0  0  0
  1  2  1  0  0  0  0
  2  3  1  0  0  0  0
  3  4  1  0  0  0  0
  4  5  1  0  0  0  0
  5  6  1  0  0  0  0
  1  6  1  0  0  0  0
  4  7  1  0  0  0  0
  7  8  1  0  0  0  0
  8  9  1  0  0  0  0
  9 10  1  0  0  0  0
 10 11  1  0  0  0  0
 11 12  1  0  0  0  0
 12 13  1  0  0  0  0
  8 13  1  0  0  0  0
 14 15  1  0  0  0  0
 15 16  1  0  0  0  0
 16 17  1  0  0  0  0
 17 18  2  0  0  0  0
 18 19  1  0  0  0  0
 19 20  1  0  0  0  0
 19 21  2  0  0  0  0
 16 21  1  0  0  0  0
 21 22  1  0  0  0  0
 22 23  1  0  0  0  0
 23 24  1  0  0  0  0
 24 25  2  0  0  0  0
 24 26  1  0  0  0  0
 27 26  1  0  0  0  0
 27 28  1  6  0  0  0
 28 29  1  0  0  0  0
 29 30  2  0  0  0  0
 29 31  1  0  0  0  0
 31 32  1  0  0  0  0
 32 33  1  0  0  0  0
 32 34  1  0  0  0  0
 32 35  1  0  0  0  0
 27 36  1  0  0  0  0
 36 37  1  0  0  0  0
 36 38  2  0  0  0  0
M  END
> <ID>
CPD_1055

$$$$
CPD_1060
  Mrv1822 09091914012D          

 30 32  0  0  1  0            999 V2000
   -3.4656    4.4759    0.0000 O   0  0  0  0  0  0  0  0  0  0  0  0
   -3.4656    3.6509    0.0000 C   0  0  0  0  0  0  0  0  0  0  0  0
   -2.7512    3.2384    0.0000 C   0  0  0  0  0  0  0  0  0  0  0  0
   -2.7512    2.4134    0.0000 C   0  0  0  0  0  0  0  0  0  0  0  0
   -2.0367    2.0009    0.0000 C   0  0  0  0  0  0  0  0  0  0  0  0
   -1.3222    2.4134    0.0000 C   0  0  0  0  0  0  0  0  0  0  0  0
   -0.6078    2.0009    0.0000 N   0  0  0  0  0  0  0  0  0  0  0  0
   -0.6078    1.1759    0.0000 C   0  0  0  0  0  0  0  0  0  0  0  0
    0.1067    0.7634    0.0000 C   0  0  0  0  0  0  0  0  0  0  0  0
    0.8212    0.3509    0.0000 N   0  0  0  0  0  0  0  0  0  0  0  0
   -1.3222    0.7634    0.0000 C   0  0  0  0  0  0  0  0  0  0  0  0
   -1.3222   -0.0616    0.0000 N   0  0  0  0  0  0  0  0  0  0  0  0
   -2.0367   -0.4741    0.0000 C   0  0  0  0  0  0  0  0  0  0  0  0
   -2.7512   -0.0616    0.0000 O   0  0  0  0  0  0  0  0  0  0  0  0
   -2.0367   -1.2991    0.0000 C   0  0  2  0  0  0  0  0  0  0  0  0
   -1.3693   -1.7840    0.0000 C   0  0  0  0  0  0  0  0  0  0  0  0
   -1.6242   -2.5687    0.0000 C   0  0  0  0  0  0  0  0  0  0  0  0
   -2.4492   -2.5687    0.0000 C   0  0  0  0  0  0  0  0  0  0  0  0
   -2.7041   -1.7840    0.0000 N   0  0  0  0  0  0  0  0  0  0  0  0
   -3.4888   -1.5291    0.0000 C   0  0  0  0  0  0  0  0  0  0  0  0
   -4.1019   -2.0811    0.0000 O   0  0  0  0  0  0  0  0  0  0  0  0
   -3.6603   -0.7221    0.0000 O   0  0  0  0  0  0  0  0  0  0  0  0
   -4.4449   -0.4672    0.0000 C   0  0  0  0  0  0  0  0  0  0  0  0
   -5.0580   -1.0192    0.0000 C   0  0  0  0  0  0  0  0  0  0  0  0
   -4.8865   -1.8262    0.0000 C   0  0  0  0  0  0  0  0  0  0  0  0
   -5.4996   -2.3782    0.0000 C   0  0  0  0  0  0  0  0  0  0  0  0
   -6.2842   -2.1233    0.0000 C   0  0  0  0  0  0  0  0  0  0  0  0
   -6.4557   -1.3163    0.0000 C   0  0  0  0  0  0  0  0  0  0  0  0
   -5.8426   -0.7643    0.0000 C   0  0  0  0  0  0  0  0  0  0  0  0
   -2.0367    1.1759    0.0000 C   0  0  0  0  0  0  0  0  0  0  0  0
  1  2  1  0  0  0  0
  2  3  1  0  0  0  0
  3  4  1  0  0  0  0
  4  5  1  0  0  0  0
  5  6  2  0  0  0  0
  6  7  1  0  0  0  0
  7  8  2  0  0  0  0
  8  9  1  0  0  0  0
  9 10  3  0  0  0  0
  8 11  1  0  0  0  0
 11 12  1  0  0  0  0
 12 13  1  0  0  0  0
 13 14  2  0  0  0  0
 15 13  1  6  0  0  0
 15 16  1  0  0  0  0
 16 17  1  0  0  0  0
 17 18  1  0  0  0  0
 18 19  1  0  0  0  0
 15 19  1  0  0  0  0
 19 20  1  0  0  0  0
 20 21  2  0  0  0  0
 20 22  1  0  0  0  0
 22 23  1  0  0  0  0
 23 24  1  0  0  0  0
 24 25  2  0  0  0  0
 25 26  1  0  0  0  0
 26 27  2  0  0  0  0
 27 28  1  0  0  0  0
 28 29  2  0  0  0  0
 24 29  1  0  0  0  0
 11 30  2  0  0  0  0
  5 30  1  0  0  0  0
M  END
> <ID>
CPD_1060

$$$$
CPD_1065
  Mrv1822 09091914012D          

 24 25  0  0  0  0            999 V2000
    1.4289   -1.6500    0.0000 N   0  0  0  0  0  0  0  0  0  0  0  0
    1.4289   -2.4750    0.0000 C   0  0  0  0  0  0  0  0  0  0  0  0
    2.1434   -2.8875    0.0000 C   0  0  0  0  0  0  0  0  0  0  0  0
    2.1434   -3.7125    0.0000 C   0  0  0  0  0  0  0  0  0  0  0  0
    2.8579   -4.1250    0.0000 F   0  0  0  0  0  0  0  0  0  0  0  0
    1.4289   -4.1250    0.0000 C   0  0  0  0  0  0  0  0  0  0  0  0
    0.7145   -3.7125    0.0000 C   0  0  0  0  0  0  0  0  0  0  0  0
    0.0000   -4.1250    0.0000 F   0  0  0  0  0  0  0  0  0  0  0  0
    0.7145   -2.8875    0.0000 C   0  0  0  0  0  0  0  0  0  0  0  0
    0.0000   -2.4750    0.0000 C   0  0  0  0  0  0  0  0  0  0  0  0
    0.0000   -1.6500    0.0000 O   0  0  0  0  0  0  0  0  0  0  0  0
   -0.7145   -2.8875    0.0000 N   0  0  0  0  0  0  0  0  0  0  0  0
   -1.4289   -2.4750    0.0000 C   0  0  0  0  0  0  0  0  0  0  0  0
   -2.1434   -2.8875    0.0000 C   0  0  0  0  0  0  0  0  0  0  0  0
   -2.8579   -2.4750    0.0000 C   0  0  0  0  0  0  0  0  0  0  0  0
   -3.5724   -2.8875    0.0000 C   0  0  0  0  0  0  0  0  0  0  0  0
   -3.5724   -3.7125    0.0000 C   0  0  0  0  0  0  0  0  0  0  0  0
   -4.2868   -4.1250    0.0000 C   0  0  0  0  0  0  0  0  0  0  0  0
   -5.0013   -3.7125    0.0000 O   0  0  0  0  0  0  0  0  0  0  0  0
   -2.8579   -1.6500    0.0000 C   0  0  0  0  0  0  0  0  0  0  0  0
   -2.1434   -1.2375    0.0000 N   0  0  0  0  0  0  0  0  0  0  0  0
   -1.4289   -1.6500    0.0000 C   0  0  0  0  0  0  0  0  0  0  0  0
   -0.7145   -1.2375    0.0000 C   0  0  0  0  0  0  0  0  0  0  0  0
    0.0000   -0.8250    0.0000 N   0  0  0  0  0  0  0  0  0  0  0  0
  1  2  1  0  0  0  0
  2  3  2  0  0  0  0
  3  4  1  0  0  0  0
  4  5  1  0  0  0  0
  4  6  2  0  0  0  0
  6  7  1  0  0  0  0
  7  8  1  0  0  0  0
  7  9  2  0  0  0  0
  2  9  1  0  0  0  0
  9 10  1  0  0  0  0
 10 11  2  0  0  0  0
 10 12  1  0  0  0  0
 12 13  1  0  0  0  0
 13 14  2  0  0  0  0
 14 15  1  0  0  0  0
 15 16  1  0  0  0  0
 16 17  1  0  0  0  0
 17 18  1  0  0  0  0
 18 19  1  0  0  0  0
 15 20  2  0  0  0  0
 20 21  1  0  0  0  0
 21 22  2  0  0  0  0
 13 22  1  0  0  0  0
 22 23  1  0  0  0  0
 23 24  3  0  0  0  0
M  END
> <ID>
CPD_1065

$$$$
CPD_1070
  Mrv1822 09091914012D          

 29 31  0  0  0  0            999 V2000
    2.8579   -2.4750    0.0000 O   0  0  0  0  0  0  0  0  0  0  0  0
    2.1434   -2.8875    0.0000 C   0  0  0  0  0  0  0  0  0  0  0  0
    2.1434   -3.7125    0.0000 C   0  0  0  0  0  0  0  0  0  0  0  0
    1.4289   -4.1250    0.0000 C   0  0  0  0  0  0  0  0  0  0  0  0
    1.4289   -4.9500    0.0000 C   0  0  0  0  0  0  0  0  0  0  0  0
    2.1434   -5.3625    0.0000 C   0  0  0  0  0  0  0  0  0  0  0  0
    2.1434   -6.1875    0.0000 N   0  0  0  0  0  0  0  0  0  0  0  0
    1.4289   -6.6000    0.0000 C   0  0  0  0  0  0  0  0  0  0  0  0
    1.4289   -7.4250    0.0000 C   0  0  0  0  0  0  0  0  0  0  0  0
    1.4289   -8.2500    0.0000 N   0  0  0  0  0  0  0  0  0  0  0  0
    0.7145   -6.1875    0.0000 C   0  0  0  0  0  0  0  0  0  0  0  0
    0.0000   -6.6000    0.0000 N   0  0  0  0  0  0  0  0  0  0  0  0
    0.0000   -7.4250    0.0000 C   0  0  0  0  0  0  0  0  0  0  0  0
    0.7145   -7.8375    0.0000 O   0  0  0  0  0  0  0  0  0  0  0  0
   -0.7145   -7.8375    0.0000 C   0  0  0  0  0  0  0  0  0  0  0  0
   -0.7145   -8.6625    0.0000 C   0  0  0  0  0  0  0  0  0  0  0  0
   -1.4289   -9.0750    0.0000 C   0  0  0  0  0  0  0  0  0  0  0  0
   -2.1434   -8.6625    0.0000 C   0  0  0  0  0  0  0  0  0  0  0  0
   -2.1434   -7.8375    0.0000 C   0  0  0  0  0  0  0  0  0  0  0  0
   -1.4289   -7.4250    0.0000 C   0  0  0  0  0  0  0  0  0  0  0  0
   -1.4289   -6.6000    0.0000 O   0  0  0  0  0  0  0  0  0  0  0  0
   -2.8579   -9.0750    0.0000 C   0  0  0  0  0  0  0  0  0  0  0  0
   -2.8579   -9.9000    0.0000 C   0  0  0  0  0  0  0  0  0  0  0  0
   -3.5724  -10.3125    0.0000 C   0  0  0  0  0  0  0  0  0  0  0  0
   -4.2868   -9.9000    0.0000 C   0  0  0  0  0  0  0  0  0  0  0  0
   -4.2868   -9.0750    0.0000 C   0  0  0  0  0  0  0  0  0  0  0  0
   -3.5724   -8.6625    0.0000 C   0  0  0  0  0  0  0  0  0  0  0  0
   -3.5724   -7.8375    0.0000 F   0  0  0  0  0  0  0  0  0  0  0  0
    0.7145   -5.3625    0.0000 C   0  0  0  0  0  0  0  0  0  0  0  0
  1  2  1  0  0  0  0
  2  3  1  0  0  0  0
  3  4  1  0  0  0  0
  4  5  1  0  0  0  0
  5  6  2  0  0  0  0
  6  7  1  0  0  0  0
  7  8  2  0  0  0  0
  8  9  1  0  0  0  0
  9 10  3  0  0  0  0
  8 11  1  0  0  0  0
 11 12  1  0  0  0  0
 12 13  1  0  0  0  0
 13 14  2  0  0  0  0
 13 15  1  0  0  0  0
 15 16  2  0  0  0  0
 16 17  1  0  0  0  0
 17 18  2  0  0  0  0
 18 19  1  0  0  0  0
 19 20  2  0  0  0  0
 15 20  1  0  0  0  0
 20 21  1  0  0  0  0
 18 22  1  0  0  0  0
 22 23  2  0  0  0  0
 23 24  1  0  0  0  0
 24 25  2  0  0  0  0
 25 26  1  0  0  0  0
 26 27  2  0  0  0  0
 22 27  1  0  0  0  0
 27 28  1  0  0  0  0
 11 29  2  0  0  0  0
  5 29  1  0  0  0  0
M  END
> <ID>
CPD_1070

$$$$
CPD_1075
  Mrv1822 09091914012D          

 20 21  0  0  0  0            999 V2000
   -2.6909    0.0165    0.0000 C   0  0  0  0  0  0  0  0  0  0  0  0
   -1.8659    0.0165    0.0000 O   0  0  0  0  0  0  0  0  0  0  0  0
   -1.4534   -0.6979    0.0000 C   0  0  0  0  0  0  0  0  0  0  0  0
   -1.8659   -1.4124    0.0000 O   0  0  0  0  0  0  0  0  0  0  0  0
   -0.6284   -0.6979    0.0000 C   0  0  0  0  0  0  0  0  0  0  0  0
   -0.1435   -1.3654    0.0000 C   0  0  0  0  0  0  0  0  0  0  0  0
   -0.3984   -2.1500    0.0000 N   0  0  0  0  0  0  0  0  0  0  0  0
    0.1536   -2.7631    0.0000 C   0  0  0  0  0  0  0  0  0  0  0  0
    0.9606   -2.5916    0.0000 O   0  0  0  0  0  0  0  0  0  0  0  0
   -0.1014   -3.5477    0.0000 C   0  0  0  0  0  0  0  0  0  0  0  0
    0.4507   -4.1608    0.0000 F   0  0  0  0  0  0  0  0  0  0  0  0
   -0.9083   -3.7192    0.0000 F   0  0  0  0  0  0  0  0  0  0  0  0
    0.6411   -1.1104    0.0000 C   0  0  0  0  0  0  0  0  0  0  0  0
    0.6411   -0.2854    0.0000 C   0  0  0  0  0  0  0  0  0  0  0  0
   -0.1435   -0.0305    0.0000 S   0  0  0  0  0  0  0  0  0  0  0  0
    1.3556    0.1271    0.0000 C   0  0  0  0  0  0  0  0  0  0  0  0
    2.0701   -0.2854    0.0000 C   0  0  0  0  0  0  0  0  0  0  0  0
    2.0701   -1.1104    0.0000 C   0  0  0  0  0  0  0  0  0  0  0  0
    2.7845   -1.5229    0.0000 Br  0  0  0  0  0  0  0  0  0  0  0  0
    1.3556   -1.5229    0.0000 C   0  0  0  0  0  0  0  0  0  0  0  0
  1  2  1  0  0  0  0
  2  3  1  0  0  0  0
  3  4  2  0  0  0  0
  3  5  1  0  0  0  0
  5  6  2  0  0  0  0
  6  7  1  0  0  0  0
  7  8  1  0  0  0  0
  8  9  2  0  0  0  0
  8 10  1  0  0  0  0
 10 11  1  0  0  0  0
 10 12  1  0  0  0  0
  6 13  1  0  0  0  0
 13 14  2  0  0  0  0
 14 15  1  0  0  0  0
  5 15  1  0  0  0  0
 14 16  1  0  0  0  0
 16 17  2  0  0  0  0
 17 18  1  0  0  0  0
 18 19  1  0  0  0  0
 18 20  2  0  0  0  0
 13 20  1  0  0  0  0
M  END
> <ID>
CPD_1075

$$$$
CPD_1080
  Mrv1822 09091914012D          

 28 29  0  0  1  0            999 V2000
   -0.2571   -4.6823    0.0000 C   0  0  0  0  0  0  0  0  0  0  0  0
   -0.5120   -3.8977    0.0000 O   0  0  0  0  0  0  0  0  0  0  0  0
    0.0400   -3.2846    0.0000 C   0  0  0  0  0  0  0  0  0  0  0  0
    0.8470   -3.4562    0.0000 O   0  0  0  0  0  0  0  0  0  0  0  0
   -0.2149   -2.5000    0.0000 C   0  0  0  0  0  0  0  0  0  0  0  0
    0.2700   -1.8326    0.0000 C   0  0  0  0  0  0  0  0  0  0  0  0
    1.0950   -1.8326    0.0000 N   0  0  0  0  0  0  0  0  0  0  0  0
    1.5075   -1.1181    0.0000 C   0  0  0  0  0  0  0  0  0  0  0  0
    1.0950   -0.4036    0.0000 O   0  0  0  0  0  0  0  0  0  0  0  0
    2.3325   -1.1181    0.0000 C   0  0  2  0  0  0  0  0  0  0  0  0
    2.7450   -0.4036    0.0000 C   0  0  0  0  0  0  0  0  0  0  0  0
    3.5700   -0.4036    0.0000 O   0  0  0  0  0  0  0  0  0  0  0  0
    3.9825    0.3108    0.0000 C   0  0  0  0  0  0  0  0  0  0  0  0
    4.3950    1.0253    0.0000 C   0  0  0  0  0  0  0  0  0  0  0  0
    4.6969   -0.1017    0.0000 C   0  0  0  0  0  0  0  0  0  0  0  0
    3.2680    0.7233    0.0000 C   0  0  0  0  0  0  0  0  0  0  0  0
    2.7450   -1.8326    0.0000 N   0  0  0  0  0  0  0  0  0  0  0  0
    3.5700   -1.8326    0.0000 C   0  0  0  0  0  0  0  0  0  0  0  0
    3.9825   -1.1181    0.0000 C   0  0  0  0  0  0  0  0  0  0  0  0
    3.9825   -2.5470    0.0000 O   0  0  0  0  0  0  0  0  0  0  0  0
   -0.2149   -1.1651    0.0000 C   0  0  0  0  0  0  0  0  0  0  0  0
   -0.9996   -1.4201    0.0000 C   0  0  0  0  0  0  0  0  0  0  0  0
   -0.9996   -2.2451    0.0000 S   0  0  0  0  0  0  0  0  0  0  0  0
   -1.6127   -0.8680    0.0000 C   0  0  0  0  0  0  0  0  0  0  0  0
   -1.4411   -0.0611    0.0000 C   0  0  0  0  0  0  0  0  0  0  0  0
   -0.6565    0.1939    0.0000 C   0  0  0  0  0  0  0  0  0  0  0  0
   -0.4850    1.0008    0.0000 Br  0  0  0  0  0  0  0  0  0  0  0  0
   -0.0434   -0.3582    0.0000 C   0  0  0  0  0  0  0  0  0  0  0  0
  1  2  1  0  0  0  0
  2  3  1  0  0  0  0
  3  4  2  0  0  0  0
  3  5  1  0  0  0  0
  5  6  2  0  0  0  0
  6  7  1  0  0  0  0
  7  8  1  0  0  0  0
  8  9  2  0  0  0  0
 10  8  1  0  0  0  0
 10 11  1  0  0  0  0
 11 12  1  0  0  0  0
 12 13  1  0  0  0  0
 13 14  1  0  0  0  0
 13 15  1  0  0  0  0
 13 16  1  0  0  0  0
 10 17  1  6  0  0  0
 17 18  1  0  0  0  0
 18 19  1  0  0  0  0
 18 20  2  0  0  0  0
  6 21  1  0  0  0  0
 21 22  2  0  0  0  0
 22 23  1  0  0  0  0
  5 23  1  0  0  0  0
 22 24  1  0  0  0  0
 24 25  2  0  0  0  0
 25 26  1  0  0  0  0
 26 27  1  0  0  0  0
 26 28  2  0  0  0  0
 21 28  1  0  0  0  0
M  END
> <ID>
CPD_1080

$$$$
CPD_1085
  Mrv1822 09091914012D          

 23 24  0  0  0  0            999 V2000
    0.7145   -1.2375    0.0000 C   0  0  0  0  0  0  0  0  0  0  0  0
    0.0000   -1.6500    0.0000 C   0  0  0  0  0  0  0  0  0  0  0  0
    0.0000   -2.4750    0.0000 C   0  0  0  0  0  0  0  0  0  0  0  0
    0.6674   -2.9599    0.0000 C   0  0  0  0  0  0  0  0  0  0  0  0
    1.4521   -2.7050    0.0000 C   0  0  0  0  0  0  0  0  0  0  0  0
    2.2367   -2.4500    0.0000 N   0  0  0  0  0  0  0  0  0  0  0  0
    0.4125   -3.7445    0.0000 C   0  0  0  0  0  0  0  0  0  0  0  0
    0.8974   -4.4120    0.0000 N   0  0  0  0  0  0  0  0  0  0  0  0
   -0.4125   -3.7445    0.0000 C   0  0  0  0  0  0  0  0  0  0  0  0
   -0.6674   -2.9599    0.0000 S   0  0  0  0  0  0  0  0  0  0  0  0
   -0.8974   -4.4120    0.0000 C   0  0  0  0  0  0  0  0  0  0  0  0
   -0.5619   -5.1657    0.0000 O   0  0  0  0  0  0  0  0  0  0  0  0
   -1.7179   -4.3257    0.0000 N   0  0  0  0  0  0  0  0  0  0  0  0
   -2.2028   -4.9932    0.0000 C   0  0  0  0  0  0  0  0  0  0  0  0
   -1.8673   -5.7469    0.0000 N   0  0  0  0  0  0  0  0  0  0  0  0
   -2.3522   -6.4143    0.0000 C   0  0  0  0  0  0  0  0  0  0  0  0
   -2.0166   -7.1680    0.0000 C   0  0  0  0  0  0  0  0  0  0  0  0
   -3.1727   -6.3281    0.0000 C   0  0  0  0  0  0  0  0  0  0  0  0
   -3.5082   -5.5744    0.0000 C   0  0  0  0  0  0  0  0  0  0  0  0
   -4.3287   -5.4882    0.0000 C   0  0  0  0  0  0  0  0  0  0  0  0
   -4.8136   -6.1556    0.0000 O   0  0  0  0  0  0  0  0  0  0  0  0
   -4.4781   -6.9093    0.0000 C   0  0  0  0  0  0  0  0  0  0  0  0
   -3.0233   -4.9070    0.0000 N   0  0  0  0  0  0  0  0  0  0  0  0
  1  2  1  0  0  0  0
  2  3  1  0  0  0  0
  3  4  2  0  0  0  0
  4  5  1  0  0  0  0
  5  6  3  0  0  0  0
  4  7  1  0  0  0  0
  7  8  1  0  0  0  0
  7  9  2  0  0  0  0
  9 10  1  0  0  0  0
  3 10  1  0  0  0  0
  9 11  1  0  0  0  0
 11 12  2  0  0  0  0
 11 13  1  0  0  0  0
 13 14  1  0  0  0  0
 14 15  2  0  0  0  0
 15 16  1  0  0  0  0
 16 17  1  0  0  0  0
 16 18  2  0  0  0  0
 18 19  1  0  0  0  0
 19 20  1  0  0  0  0
 20 21  1  0  0  0  0
 21 22  1  0  0  0  0
 19 23  2  0  0  0  0
 14 23  1  0  0  0  0
M  END
> <ID>
CPD_1085

$$$$
CPD_1090
  Mrv1822 09091914012D          

 22 23  0  0  0  0            999 V2000
    2.1434   -0.4125    0.0000 C   0  0  0  0  0  0  0  0  0  0  0  0
    2.1434   -1.2375    0.0000 O   0  0  0  0  0  0  0  0  0  0  0  0
    2.8579   -1.6500    0.0000 C   0  0  0  0  0  0  0  0  0  0  0  0
    2.8579   -2.4750    0.0000 C   0  0  0  0  0  0  0  0  0  0  0  0
    3.5724   -2.8875    0.0000 N   0  0  0  0  0  0  0  0  0  0  0  0
    3.5724   -3.7125    0.0000 C   0  0  0  0  0  0  0  0  0  0  0  0
    4.2868   -4.1250    0.0000 N   0  0  0  0  0  0  0  0  0  0  0  0
    4.2868   -4.9500    0.0000 C   0  0  0  0  0  0  0  0  0  0  0  0
    3.5724   -5.3625    0.0000 O   0  0  0  0  0  0  0  0  0  0  0  0
    5.0013   -5.3625    0.0000 C   0  0  0  0  0  0  0  0  0  0  0  0
    5.0013   -6.1875    0.0000 C   0  0  0  0  0  0  0  0  0  0  0  0
    5.7158   -6.6000    0.0000 C   0  0  0  0  0  0  0  0  0  0  0  0
    6.4302   -6.1875    0.0000 Cl  0  0  0  0  0  0  0  0  0  0  0  0
    5.7158   -7.4250    0.0000 C   0  0  0  0  0  0  0  0  0  0  0  0
    5.0013   -7.8375    0.0000 C   0  0  0  0  0  0  0  0  0  0  0  0
    4.2868   -7.4250    0.0000 C   0  0  0  0  0  0  0  0  0  0  0  0
    3.5724   -7.8375    0.0000 Br  0  0  0  0  0  0  0  0  0  0  0  0
    4.2868   -6.6000    0.0000 C   0  0  0  0  0  0  0  0  0  0  0  0
    2.8579   -4.1250    0.0000 N   0  0  0  0  0  0  0  0  0  0  0  0
    2.1434   -3.7125    0.0000 C   0  0  0  0  0  0  0  0  0  0  0  0
    1.4289   -4.1250    0.0000 C   0  0  0  0  0  0  0  0  0  0  0  0
    2.1434   -2.8875    0.0000 C   0  0  0  0  0  0  0  0  0  0  0  0
  1  2  1  0  0  0  0
  2  3  1  0  0  0  0
  3  4  1  0  0  0  0
  4  5  2  0  0  0  0
  5  6  1  0  0  0  0
  6  7  1  0  0  0  0
  7  8  1  0  0  0  0
  8  9  2  0  0  0  0
  8 10  1  0  0  0  0
 10 11  1  0  0  0  0
 11 12  2  0  0  0  0
 12 13  1  0  0  0  0
 12 14  1  0  0  0  0
 14 15  2  0  0  0  0
 15 16  1  0  0  0  0
 16 17  1  0  0  0  0
 16 18  2  0  0  0  0
 11 18  1  0  0  0  0
  6 19  2  0  0  0  0
 19 20  1  0  0  0  0
 20 21  1  0  0  0  0
 20 22  2  0  0  0  0
  4 22  1  0  0  0  0
M  END
> <ID>
CPD_1090

$$$$
CPD_1095
  Mrv1822 09091914012D          

 19 21  0  0  1  0            999 V2000
   -0.1830    3.9995    0.0000 O   0  0  0  0  0  0  0  0  0  0  0  0
    0.3020    3.3320    0.0000 C   0  0  1  0  0  0  0  0  0  0  0  0
    1.1270    3.3320    0.0000 C   0  0  0  0  0  0  0  0  0  0  0  0
    1.3819    2.5474    0.0000 C   0  0  0  0  0  0  0  0  0  0  0  0
    0.7145    2.0625    0.0000 C   0  0  2  0  0  0  0  0  0  0  0  0
    0.0470    2.5474    0.0000 C   0  0  0  0  0  0  0  0  0  0  0  0
    0.7145    1.2375    0.0000 N   0  0  0  0  0  0  0  0  0  0  0  0
    1.4289    0.8250    0.0000 C   0  0  0  0  0  0  0  0  0  0  0  0
    2.1434    1.2375    0.0000 O   0  0  0  0  0  0  0  0  0  0  0  0
    1.4289    0.0000    0.0000 C   0  0  0  0  0  0  0  0  0  0  0  0
    2.1434   -0.4125    0.0000 C   0  0  0  0  0  0  0  0  0  0  0  0
    2.8579    0.0000    0.0000 N   0  0  0  0  0  0  0  0  0  0  0  0
    3.5724   -0.4125    0.0000 C   0  0  0  0  0  0  0  0  0  0  0  0
    3.5724   -1.2375    0.0000 C   0  0  0  0  0  0  0  0  0  0  0  0
    2.8579   -1.6500    0.0000 N   0  0  0  0  0  0  0  0  0  0  0  0
    2.1434   -1.2375    0.0000 C   0  0  0  0  0  0  0  0  0  0  0  0
    1.4289   -1.6500    0.0000 C   0  0  0  0  0  0  0  0  0  0  0  0
    0.7145   -1.2375    0.0000 C   0  0  0  0  0  0  0  0  0  0  0  0
    0.7145   -0.4125    0.0000 C   0  0  0  0  0  0  0  0  0  0  0  0
  2  1  1  1  0  0  0
  2  3  1  0  0  0  0
  3  4  1  0  0  0  0
  5  4  1  0  0  0  0
  5  6  1  0  0  0  0
  2  6  1  0  0  0  0
  5  7  1  1  0  0  0
  7  8  1  0  0  0  0
  8  9  2  0  0  0  0
  8 10  1  0  0  0  0
 10 11  2  0  0  0  0
 11 12  1  0  0  0  0
 12 13  2  0  0  0  0
 13 14  1  0  0  0  0
 14 15  2  0  0  0  0
 15 16  1  0  0  0  0
 11 16  1  0  0  0  0
 16 17  2  0  0  0  0
 17 18  1  0  0  0  0
 18 19  2  0  0  0  0
 10 19  1  0  0  0  0
M  END
> <ID>
CPD_1095

$$$$
CPD_1100
  Mrv1822 09091914012D          

 24 26  0  0  1  0            999 V2000
    2.8579   -4.1250    0.0000 O   0  0  0  0  0  0  0  0  0  0  0  0
    2.8579   -4.9500    0.0000 C   0  0  1  0  0  0  0  0  0  0  0  0
    3.5253   -5.4349    0.0000 C   0  0  0  0  0  0  0  0  0  0  0  0
    3.2704   -6.2195    0.0000 C   0  0  0  0  0  0  0  0  0  0  0  0
    2.4454   -6.2195    0.0000 C   0  0  2  0  0  0  0  0  0  0  0  0
    2.1904   -5.4349    0.0000 C   0  0  0  0  0  0  0  0  0  0  0  0
    1.9605   -6.8870    0.0000 N   0  0  0  0  0  0  0  0  0  0  0  0
    2.2960   -7.6407    0.0000 C   0  0  0  0  0  0  0  0  0  0  0  0
    3.1165   -7.7269    0.0000 O   0  0  0  0  0  0  0  0  0  0  0  0
    1.8111   -8.3081    0.0000 C   0  0  0  0  0  0  0  0  0  0  0  0
    2.1467   -9.0618    0.0000 C   0  0  0  0  0  0  0  0  0  0  0  0
    1.6617   -9.7292    0.0000 N   0  0  0  0  0  0  0  0  0  0  0  0
    1.9973  -10.4829    0.0000 C   0  0  0  0  0  0  0  0  0  0  0  0
    1.5124  -11.1503    0.0000 C   0  0  0  0  0  0  0  0  0  0  0  0
    1.8479  -11.9040    0.0000 C   0  0  0  0  0  0  0  0  0  0  0  0
    1.3630  -12.5714    0.0000 C   0  0  0  0  0  0  0  0  0  0  0  0
    0.5425  -12.4852    0.0000 C   0  0  0  0  0  0  0  0  0  0  0  0
    0.2070  -11.7315    0.0000 C   0  0  0  0  0  0  0  0  0  0  0  0
    0.6919  -11.0641    0.0000 C   0  0  0  0  0  0  0  0  0  0  0  0
    0.8413   -9.6430    0.0000 C   0  0  0  0  0  0  0  0  0  0  0  0
    0.3563  -10.3104    0.0000 O   0  0  0  0  0  0  0  0  0  0  0  0
    0.5057   -8.8893    0.0000 C   0  0  0  0  0  0  0  0  0  0  0  0
   -0.3148   -8.8031    0.0000 Cl  0  0  0  0  0  0  0  0  0  0  0  0
    0.9906   -8.2219    0.0000 C   0  0  0  0  0  0  0  0  0  0  0  0
  2  1  1  1  0  0  0
  2  3  1  0  0  0  0
  3  4  1  0  0  0  0
  5  4  1  0  0  0  0
  5  6  1  0  0  0  0
  2  6  1  0  0  0  0
  5  7  1  1  0  0  0
  7  8  1  0  0  0  0
  8  9  2  0  0  0  0
  8 10  1  0  0  0  0
 10 11  2  0  0  0  0
 11 12  1  0  0  0  0
 12 13  1  0  0  0  0
 13 14  1  0  0  0  0
 14 15  2  0  0  0  0
 15 16  1  0  0  0  0
 16 17  2  0  0  0  0
 17 18  1  0  0  0  0
 18 19  2  0  0  0  0
 14 19  1  0  0  0  0
 12 20  1  0  0  0  0
 20 21  2  0  0  0  0
 20 22  1  0  0  0  0
 22 23  1  0  0  0  0
 22 24  2  0  0  0  0
 10 24  1  0  0  0  0
M  END
> <ID>
CPD_1100

$$$$
CPD_1105
  Mrv1822 09091914012D          

 21 22  0  0  1  0            999 V2000
    0.8212    9.3027    0.0000 C   0  0  0  0  0  0  0  0  0  0  0  0
    0.8212    8.4777    0.0000 N   0  0  0  0  0  0  0  0  0  0  0  0
    1.5356    8.0652    0.0000 C   0  0  0  0  0  0  0  0  0  0  0  0
    0.1067    8.0652    0.0000 C   0  0  0  0  0  0  0  0  0  0  0  0
   -0.6078    8.4777    0.0000 O   0  0  0  0  0  0  0  0  0  0  0  0
    0.1067    7.2402    0.0000 N   0  0  0  0  0  0  0  0  0  0  0  0
   -0.6078    6.8277    0.0000 C   0  0  0  0  0  0  0  0  0  0  0  0
   -0.6078    6.0027    0.0000 C   0  0  0  0  0  0  0  0  0  0  0  0
   -1.3222    5.5902    0.0000 C   0  0  0  0  0  0  0  0  0  0  0  0
   -2.0367    6.0027    0.0000 C   0  0  0  0  0  0  0  0  0  0  0  0
   -2.0367    6.8277    0.0000 C   0  0  0  0  0  0  0  0  0  0  0  0
   -1.3222    7.2402    0.0000 C   0  0  0  0  0  0  0  0  0  0  0  0
   -1.3222    4.7652    0.0000 C   0  0  0  0  0  0  0  0  0  0  0  0
   -0.6078    4.3527    0.0000 O   0  0  0  0  0  0  0  0  0  0  0  0
   -2.0367    4.3527    0.0000 N   0  0  0  0  0  0  0  0  0  0  0  0
   -2.0367    3.5277    0.0000 C   0  0  2  0  0  0  0  0  0  0  0  0
   -1.3693    3.0428    0.0000 C   0  0  0  0  0  0  0  0  0  0  0  0
   -1.6242    2.2581    0.0000 C   0  0  0  0  0  0  0  0  0  0  0  0
   -2.4492    2.2581    0.0000 C   0  0  2  0  0  0  0  0  0  0  0  0
   -2.9341    1.5907    0.0000 O   0  0  0  0  0  0  0  0  0  0  0  0
   -2.7041    3.0428    0.0000 C   0  0  0  0  0  0  0  0  0  0  0  0
  1  2  1  0  0  0  0
  2  3  1  0  0  0  0
  2  4  1  0  0  0  0
  4  5  2  0  0  0  0
  4  6  1  0  0  0  0
  6  7  1  0  0  0  0
  7  8  2  0  0  0  0
  8  9  1  0  0  0  0
  9 10  2  0  0  0  0
 10 11  1  0  0  0  0
 11 12  2  0  0  0  0
  7 12  1  0  0  0  0
  9 13  1  0  0  0  0
 13 14  2  0  0  0  0
 13 15  1  0  0  0  0
 16 15  1  6  0  0  0
 16 17  1  0  0  0  0
 17 18  1  0  0  0  0
 19 18  1  0  0  0  0
 19 20  1  6  0  0  0
 19 21  1  0  0  0  0
 16 21  1  0  0  0  0
M  END
> <ID>
CPD_1105

$$$$
CPD_1110
  Mrv1822 09091914012D          

 21 22  0  0  1  0            999 V2000
   -0.4696    0.0721    0.0000 C   0  0  0  0  0  0  0  0  0  0  0  0
    0.2449   -0.3404    0.0000 C   0  0  0  0  0  0  0  0  0  0  0  0
    0.2449   -1.1654    0.0000 O   0  0  0  0  0  0  0  0  0  0  0  0
    0.9593   -1.5779    0.0000 C   0  0  0  0  0  0  0  0  0  0  0  0
    1.6738   -1.1654    0.0000 O   0  0  0  0  0  0  0  0  0  0  0  0
    0.9593   -2.4029    0.0000 C   0  0  0  0  0  0  0  0  0  0  0  0
    1.6268   -2.8879    0.0000 C   0  0  0  0  0  0  0  0  0  0  0  0
    2.4114   -2.6329    0.0000 C   0  0  0  0  0  0  0  0  0  0  0  0
    1.3718   -3.6725    0.0000 C   0  0  0  0  0  0  0  0  0  0  0  0
    1.8568   -4.3399    0.0000 C   0  0  0  0  0  0  0  0  0  0  0  0
    2.6772   -4.2537    0.0000 O   0  0  0  0  0  0  0  0  0  0  0  0
    1.5212   -5.0936    0.0000 N   0  0  0  0  0  0  0  0  0  0  0  0
    2.0061   -5.7610    0.0000 C   0  0  2  0  0  0  0  0  0  0  0  0
    2.8311   -5.7610    0.0000 C   0  0  0  0  0  0  0  0  0  0  0  0
    3.0861   -6.5456    0.0000 C   0  0  0  0  0  0  0  0  0  0  0  0
    2.4186   -7.0306    0.0000 C   0  0  2  0  0  0  0  0  0  0  0  0
    2.4186   -7.8556    0.0000 O   0  0  0  0  0  0  0  0  0  0  0  0
    1.7512   -6.5456    0.0000 C   0  0  0  0  0  0  0  0  0  0  0  0
    0.5468   -3.6725    0.0000 C   0  0  0  0  0  0  0  0  0  0  0  0
    0.0619   -4.3399    0.0000 N   0  0  0  0  0  0  0  0  0  0  0  0
    0.2919   -2.8879    0.0000 S   0  0  0  0  0  0  0  0  0  0  0  0
  1  2  1  0  0  0  0
  2  3  1  0  0  0  0
  3  4  1  0  0  0  0
  4  5  2  0  0  0  0
  4  6  1  0  0  0  0
  6  7  2  0  0  0  0
  7  8  1  0  0  0  0
  7  9  1  0  0  0  0
  9 10  1  0  0  0  0
 10 11  2  0  0  0  0
 10 12  1  0  0  0  0
 13 12  1  6  0  0  0
 13 14  1  0  0  0  0
 14 15  1  0  0  0  0
 16 15  1  0  0  0  0
 16 17  1  6  0  0  0
 16 18  1  0  0  0  0
 13 18  1  0  0  0  0
  9 19  2  0  0  0  0
 19 20  1  0  0  0  0
 19 21  1  0  0  0  0
  6 21  1  0  0  0  0
M  END
> <ID>
CPD_1110

$$$$
CPD_1115
  Mrv1822 09091914012D          

 34 37  0  0  0  0            999 V2000
   -0.7145   11.7161    0.0000 C   0  0  0  0  0  0  0  0  0  0  0  0
   -0.7145   10.8911    0.0000 O   0  0  0  0  0  0  0  0  0  0  0  0
   -0.0000   10.4786    0.0000 C   0  0  0  0  0  0  0  0  0  0  0  0
    0.7145   10.8911    0.0000 O   0  0  0  0  0  0  0  0  0  0  0  0
   -0.0000    9.6536    0.0000 C   0  0  0  0  0  0  0  0  0  0  0  0
    0.7145    9.2411    0.0000 C   0  0  0  0  0  0  0  0  0  0  0  0
    1.4289    9.6536    0.0000 C   0  0  0  0  0  0  0  0  0  0  0  0
    0.7145    8.4161    0.0000 C   0  0  0  0  0  0  0  0  0  0  0  0
    1.4289    8.0036    0.0000 C   0  0  0  0  0  0  0  0  0  0  0  0
   -0.0000    8.0036    0.0000 C   0  0  0  0  0  0  0  0  0  0  0  0
   -0.0000    7.1786    0.0000 C   0  0  0  0  0  0  0  0  0  0  0  0
   -0.7145    6.7661    0.0000 O   0  0  0  0  0  0  0  0  0  0  0  0
    0.7145    6.7661    0.0000 N   0  0  0  0  0  0  0  0  0  0  0  0
    0.7145    5.9411    0.0000 C   0  0  0  0  0  0  0  0  0  0  0  0
    1.4289    5.5286    0.0000 C   0  0  0  0  0  0  0  0  0  0  0  0
    1.4289    4.7036    0.0000 C   0  0  0  0  0  0  0  0  0  0  0  0
    0.7145    4.2911    0.0000 C   0  0  0  0  0  0  0  0  0  0  0  0
    0.0000    4.7036    0.0000 C   0  0  0  0  0  0  0  0  0  0  0  0
   -0.0000    5.5286    0.0000 C   0  0  0  0  0  0  0  0  0  0  0  0
    0.7145    3.4661    0.0000 C   0  0  0  0  0  0  0  0  0  0  0  0
    1.3819    2.9812    0.0000 N   0  0  0  0  0  0  0  0  0  0  0  0
    1.1270    2.1965    0.0000 C   0  0  0  0  0  0  0  0  0  0  0  0
    1.6119    1.5291    0.0000 C   0  0  0  0  0  0  0  0  0  0  0  0
    1.2763    0.7754    0.0000 N   0  0  0  0  0  0  0  0  0  0  0  0
    1.6888    0.0609    0.0000 C   0  0  0  0  0  0  0  0  0  0  0  0
    1.1368   -0.5522    0.0000 C   0  0  0  0  0  0  0  0  0  0  0  0
    0.3831   -0.2166    0.0000 C   0  0  0  0  0  0  0  0  0  0  0  0
    0.4694    0.6039    0.0000 N   0  0  0  0  0  0  0  0  0  0  0  0
    0.3020    2.1965    0.0000 N   0  0  0  0  0  0  0  0  0  0  0  0
    0.0470    2.9812    0.0000 N   0  0  0  0  0  0  0  0  0  0  0  0
   -0.7145    8.4161    0.0000 C   0  0  0  0  0  0  0  0  0  0  0  0
   -1.4289    8.0036    0.0000 C   0  0  0  0  0  0  0  0  0  0  0  0
   -0.7145    9.2411    0.0000 C   0  0  0  0  0  0  0  0  0  0  0  0
   -1.4289    9.6536    0.0000 C   0  0  0  0  0  0  0  0  0  0  0  0
  1  2  1  0  0  0  0
  2  3  1  0  0  0  0
  3  4  2  0  0  0  0
  3  5  1  0  0  0  0
  5  6  2  0  0  0  0
  6  7  1  0  0  0  0
  6  8  1  0  0  0  0
  8  9  1  0  0  0  0
  8 10  2  0  0  0  0
 10 11  1  0  0  0  0
 11 12  2  0  0  0  0
 11 13  1  0  0  0  0
 13 14  1  0  0  0  0
 14 15  2  0  0  0  0
 15 16  1  0  0  0  0
 16 17  2  0  0  0  0
 17 18  1  0  0  0  0
 18 19  2  0  0  0  0
 14 19  1  0  0  0  0
 17 20  1  0  0  0  0
 20 21  2  0  0  0  0
 21 22  1  0  0  0  0
 22 23  1  0  0  0  0
 23 24  1  0  0  0  0
 24 25  1  0  0  0  0
 25 26  2  0  0  0  0
 26 27  1  0  0  0  0
 27 28  2  0  0  0  0
 24 28  1  0  0  0  0
 22 29  2  0  0  0  0
 29 30  1  0  0  0  0
 20 30  1  0  0  0  0
 10 31  1  0  0  0  0
 31 32  1  0  0  0  0
 31 33  2  0  0  0  0
  5 33  1  0  0  0  0
 33 34  1  0  0  0  0
M  END
> <ID>
CPD_1115

$$$$
CPD_1120
  Mrv1822 09091914012D          

 29 32  0  0  0  0            999 V2000
   -2.8579    8.0036    0.0000 Br  0  0  0  0  0  0  0  0  0  0  0  0
   -2.1434    8.4161    0.0000 C   0  0  0  0  0  0  0  0  0  0  0  0
   -2.1434    9.2411    0.0000 C   0  0  0  0  0  0  0  0  0  0  0  0
   -1.4289    9.6536    0.0000 C   0  0  0  0  0  0  0  0  0  0  0  0
   -0.7145    9.2411    0.0000 C   0  0  0  0  0  0  0  0  0  0  0  0
   -0.0000    9.6536    0.0000 Br  0  0  0  0  0  0  0  0  0  0  0  0
   -0.7145    8.4161    0.0000 C   0  0  0  0  0  0  0  0  0  0  0  0
   -0.0000    8.0036    0.0000 C   0  0  0  0  0  0  0  0  0  0  0  0
   -0.0000    7.1786    0.0000 C   0  0  0  0  0  0  0  0  0  0  0  0
   -0.7145    6.7661    0.0000 O   0  0  0  0  0  0  0  0  0  0  0  0
    0.7145    6.7661    0.0000 N   0  0  0  0  0  0  0  0  0  0  0  0
    0.7145    5.9411    0.0000 C   0  0  0  0  0  0  0  0  0  0  0  0
    1.4289    5.5286    0.0000 C   0  0  0  0  0  0  0  0  0  0  0  0
    1.4289    4.7036    0.0000 C   0  0  0  0  0  0  0  0  0  0  0  0
    0.7145    4.2911    0.0000 C   0  0  0  0  0  0  0  0  0  0  0  0
    0.0000    4.7036    0.0000 C   0  0  0  0  0  0  0  0  0  0  0  0
   -0.0000    5.5286    0.0000 C   0  0  0  0  0  0  0  0  0  0  0  0
    0.7145    3.4661    0.0000 C   0  0  0  0  0  0  0  0  0  0  0  0
    1.3819    2.9812    0.0000 N   0  0  0  0  0  0  0  0  0  0  0  0
    1.1270    2.1965    0.0000 C   0  0  0  0  0  0  0  0  0  0  0  0
    1.6119    1.5291    0.0000 C   0  0  0  0  0  0  0  0  0  0  0  0
    1.2763    0.7754    0.0000 N   0  0  0  0  0  0  0  0  0  0  0  0
    1.6888    0.0609    0.0000 C   0  0  0  0  0  0  0  0  0  0  0  0
    1.1368   -0.5522    0.0000 C   0  0  0  0  0  0  0  0  0  0  0  0
    0.3831   -0.2166    0.0000 C   0  0  0  0  0  0  0  0  0  0  0  0
    0.4694    0.6039    0.0000 N   0  0  0  0  0  0  0  0  0  0  0  0
    0.3020    2.1965    0.0000 N   0  0  0  0  0  0  0  0  0  0  0  0
    0.0470    2.9812    0.0000 N   0  0  0  0  0  0  0  0  0  0  0  0
   -1.4289    8.0036    0.0000 C   0  0  0  0  0  0  0  0  0  0  0  0
  1  2  1  0  0  0  0
  2  3  2  0  0  0  0
  3  4  1  0  0  0  0
  4  5  2  0  0  0  0
  5  6  1  0  0  0  0
  5  7  1  0  0  0  0
  7  8  1  0  0  0  0
  8  9  1  0  0  0  0
  9 10  2  0  0  0  0
  9 11  1  0  0  0  0
 11 12  1  0  0  0  0
 12 13  2  0  0  0  0
 13 14  1  0  0  0  0
 14 15  2  0  0  0  0
 15 16  1  0  0  0  0
 16 17  2  0  0  0  0
 12 17  1  0  0  0  0
 15 18  1  0  0  0  0
 18 19  2  0  0  0  0
 19 20  1  0  0  0  0
 20 21  1  0  0  0  0
 21 22  1  0  0  0  0
 22 23  1  0  0  0  0
 23 24  2  0  0  0  0
 24 25  1  0  0  0  0
 25 26  2  0  0  0  0
 22 26  1  0  0  0  0
 20 27  2  0  0  0  0
 27 28  1  0  0  0  0
 18 28  1  0  0  0  0
  7 29  2  0  0  0  0
  2 29  1  0  0  0  0
M  END
> <ID>
CPD_1120

$$$$
CPD_1125
  Mrv1822 09091914012D          

 25 28  0  0  0  0            999 V2000
    1.2581   -1.7208    0.0000 C   0  0  0  0  0  0  0  0  0  0  0  0
    1.8414   -2.3041    0.0000 C   0  0  0  0  0  0  0  0  0  0  0  0
    2.4248   -2.8875    0.0000 C   0  0  0  0  0  0  0  0  0  0  0  0
    1.8414   -3.4709    0.0000 N   0  0  0  0  0  0  0  0  0  0  0  0
    1.2581   -2.8875    0.0000 C   0  0  0  0  0  0  0  0  0  0  0  0
    2.4248   -1.7208    0.0000 C   0  0  0  0  0  0  0  0  0  0  0  0
    3.2217   -1.9343    0.0000 O   0  0  0  0  0  0  0  0  0  0  0  0
    2.2113   -0.9239    0.0000 N   0  0  0  0  0  0  0  0  0  0  0  0
    2.7946   -0.3405    0.0000 C   0  0  0  0  0  0  0  0  0  0  0  0
    2.5811    0.4564    0.0000 C   0  0  0  0  0  0  0  0  0  0  0  0
    3.1645    1.0397    0.0000 C   0  0  0  0  0  0  0  0  0  0  0  0
    3.9614    0.8262    0.0000 C   0  0  0  0  0  0  0  0  0  0  0  0
    4.1749    0.0293    0.0000 C   0  0  0  0  0  0  0  0  0  0  0  0
    3.5915   -0.5540    0.0000 C   0  0  0  0  0  0  0  0  0  0  0  0
    4.5447    1.4096    0.0000 C   0  0  0  0  0  0  0  0  0  0  0  0
    4.4157    2.2244    0.0000 N   0  0  0  0  0  0  0  0  0  0  0  0
    5.1508    2.5990    0.0000 C   0  0  0  0  0  0  0  0  0  0  0  0
    5.2798    3.4138    0.0000 C   0  0  0  0  0  0  0  0  0  0  0  0
    6.0500    3.7094    0.0000 N   0  0  0  0  0  0  0  0  0  0  0  0
    6.2635    4.5063    0.0000 C   0  0  0  0  0  0  0  0  0  0  0  0
    7.0874    4.5495    0.0000 C   0  0  0  0  0  0  0  0  0  0  0  0
    7.3831    3.7793    0.0000 C   0  0  0  0  0  0  0  0  0  0  0  0
    6.7419    3.2601    0.0000 N   0  0  0  0  0  0  0  0  0  0  0  0
    5.7341    2.0156    0.0000 N   0  0  0  0  0  0  0  0  0  0  0  0
    5.3596    1.2805    0.0000 N   0  0  0  0  0  0  0  0  0  0  0  0
  1  2  1  0  0  0  0
  2  3  1  0  0  0  0
  3  4  1  0  0  0  0
  4  5  1  0  0  0  0
  2  5  1  0  0  0  0
  2  6  1  0  0  0  0
  6  7  2  0  0  0  0
  6  8  1  0  0  0  0
  8  9  1  0  0  0  0
  9 10  2  0  0  0  0
 10 11  1  0  0  0  0
 11 12  2  0  0  0  0
 12 13  1  0  0  0  0
 13 14  2  0  0  0  0
  9 14  1  0  0  0  0
 12 15  1  0  0  0  0
 15 16  2  0  0  0  0
 16 17  1  0  0  0  0
 17 18  1  0  0  0  0
 18 19  1  0  0  0  0
 19 20  1  0  0  0  0
 20 21  2  0  0  0  0
 21 22  1  0  0  0  0
 22 23  2  0  0  0  0
 19 23  1  0  0  0  0
 17 24  2  0  0  0  0
 24 25  1  0  0  0  0
 15 25  1  0  0  0  0
M  END
> <ID>
CPD_1125

$$$$
CPD_1130
  Mrv1822 09091914012D          

 32 35  0  0  0  0            999 V2000
   -0.7145   12.5411    0.0000 F   0  0  0  0  0  0  0  0  0  0  0  0
   -0.7145   11.7161    0.0000 C   0  0  0  0  0  0  0  0  0  0  0  0
   -1.5395   11.7161    0.0000 F   0  0  0  0  0  0  0  0  0  0  0  0
    0.1105   11.7161    0.0000 F   0  0  0  0  0  0  0  0  0  0  0  0
   -0.7145   10.8911    0.0000 C   0  0  0  0  0  0  0  0  0  0  0  0
   -0.0000   10.4786    0.0000 C   0  0  0  0  0  0  0  0  0  0  0  0
   -0.0000    9.6536    0.0000 C   0  0  0  0  0  0  0  0  0  0  0  0
   -0.7145    9.2411    0.0000 C   0  0  0  0  0  0  0  0  0  0  0  0
   -0.7145    8.4161    0.0000 O   0  0  0  0  0  0  0  0  0  0  0  0
   -0.0000    8.0036    0.0000 C   0  0  0  0  0  0  0  0  0  0  0  0
   -0.0000    7.1786    0.0000 C   0  0  0  0  0  0  0  0  0  0  0  0
   -0.7145    6.7661    0.0000 O   0  0  0  0  0  0  0  0  0  0  0  0
    0.7145    6.7661    0.0000 N   0  0  0  0  0  0  0  0  0  0  0  0
    0.7145    5.9411    0.0000 C   0  0  0  0  0  0  0  0  0  0  0  0
    1.4289    5.5286    0.0000 C   0  0  0  0  0  0  0  0  0  0  0  0
    1.4289    4.7036    0.0000 C   0  0  0  0  0  0  0  0  0  0  0  0
    0.7145    4.2911    0.0000 C   0  0  0  0  0  0  0  0  0  0  0  0
    0.0000    4.7036    0.0000 C   0  0  0  0  0  0  0  0  0  0  0  0
   -0.0000    5.5286    0.0000 C   0  0  0  0  0  0  0  0  0  0  0  0
    0.7145    3.4661    0.0000 C   0  0  0  0  0  0  0  0  0  0  0  0
    1.3819    2.9812    0.0000 N   0  0  0  0  0  0  0  0  0  0  0  0
    1.1270    2.1965    0.0000 C   0  0  0  0  0  0  0  0  0  0  0  0
    1.6119    1.5291    0.0000 C   0  0  0  0  0  0  0  0  0  0  0  0
    1.2763    0.7754    0.0000 N   0  0  0  0  0  0  0  0  0  0  0  0
    1.6888    0.0609    0.0000 C   0  0  0  0  0  0  0  0  0  0  0  0
    1.1368   -0.5522    0.0000 C   0  0  0  0  0  0  0  0  0  0  0  0
    0.3831   -0.2166    0.0000 C   0  0  0  0  0  0  0  0  0  0  0  0
    0.4694    0.6039    0.0000 N   0  0  0  0  0  0  0  0  0  0  0  0
    0.3020    2.1965    0.0000 N   0  0  0  0  0  0  0  0  0  0  0  0
    0.0470    2.9812    0.0000 N   0  0  0  0  0  0  0  0  0  0  0  0
   -1.4289    9.6536    0.0000 C   0  0  0  0  0  0  0  0  0  0  0  0
   -1.4289   10.4786    0.0000 C   0  0  0  0  0  0  0  0  0  0  0  0
  1  2  1  0  0  0  0
  2  3  1  0  0  0  0
  2  4  1  0  0  0  0
  2  5  1  0  0  0  0
  5  6  2  0  0  0  0
  6  7  1  0  0  0  0
  7  8  2  0  0  0  0
  8  9  1  0  0  0  0
  9 10  1  0  0  0  0
 10 11  1  0  0  0  0
 11 12  2  0  0  0  0
 11 13  1  0  0  0  0
 13 14  1  0  0  0  0
 14 15  2  0  0  0  0
 15 16  1  0  0  0  0
 16 17  2  0  0  0  0
 17 18  1  0  0  0  0
 18 19  2  0  0  0  0
 14 19  1  0  0  0  0
 17 20  1  0  0  0  0
 20 21  2  0  0  0  0
 21 22  1  0  0  0  0
 22 23  1  0  0  0  0
 23 24  1  0  0  0  0
 24 25  1  0  0  0  0
 25 26  2  0  0  0  0
 26 27  1  0  0  0  0
 27 28  2  0  0  0  0
 24 28  1  0  0  0  0
 22 29  2  0  0  0  0
 29 30  1  0  0  0  0
 20 30  1  0  0  0  0
  8 31  1  0  0  0  0
 31 32  2  0  0  0  0
  5 32  1  0  0  0  0
M  END
> <ID>
CPD_1130

$$$$
CPD_1135
  Mrv1822 09091914012D          

 30 34  0  0  0  0            999 V2000
    0.8838   -2.1500    0.0000 Br  0  0  0  0  0  0  0  0  0  0  0  0
    1.1387   -1.3654    0.0000 C   0  0  0  0  0  0  0  0  0  0  0  0
    0.6538   -0.6979    0.0000 C   0  0  0  0  0  0  0  0  0  0  0  0
    1.1387   -0.0305    0.0000 N   0  0  0  0  0  0  0  0  0  0  0  0
    1.9233   -0.2854    0.0000 C   0  0  0  0  0  0  0  0  0  0  0  0
    2.6378    0.1271    0.0000 C   0  0  0  0  0  0  0  0  0  0  0  0
    3.3523   -0.2854    0.0000 C   0  0  0  0  0  0  0  0  0  0  0  0
    3.3523   -1.1104    0.0000 C   0  0  0  0  0  0  0  0  0  0  0  0
    2.6378   -1.5229    0.0000 C   0  0  0  0  0  0  0  0  0  0  0  0
    1.9233   -1.1104    0.0000 C   0  0  0  0  0  0  0  0  0  0  0  0
    4.0668    0.1271    0.0000 C   0  0  0  0  0  0  0  0  0  0  0  0
    4.7812   -0.2854    0.0000 O   0  0  0  0  0  0  0  0  0  0  0  0
    4.0668    0.9521    0.0000 N   0  0  0  0  0  0  0  0  0  0  0  0
    4.7812    1.3646    0.0000 C   0  0  0  0  0  0  0  0  0  0  0  0
    4.7812    2.1896    0.0000 C   0  0  0  0  0  0  0  0  0  0  0  0
    5.4957    2.6021    0.0000 C   0  0  0  0  0  0  0  0  0  0  0  0
    6.2102    2.1896    0.0000 C   0  0  0  0  0  0  0  0  0  0  0  0
    6.2102    1.3646    0.0000 C   0  0  0  0  0  0  0  0  0  0  0  0
    5.4957    0.9521    0.0000 C   0  0  0  0  0  0  0  0  0  0  0  0
    6.9246    2.6021    0.0000 C   0  0  0  0  0  0  0  0  0  0  0  0
    7.0109    3.4225    0.0000 N   0  0  0  0  0  0  0  0  0  0  0  0
    7.8178    3.5941    0.0000 C   0  0  0  0  0  0  0  0  0  0  0  0
    8.1534    4.3477    0.0000 C   0  0  0  0  0  0  0  0  0  0  0  0
    8.9739    4.4340    0.0000 N   0  0  0  0  0  0  0  0  0  0  0  0
    9.3864    5.1484    0.0000 C   0  0  0  0  0  0  0  0  0  0  0  0
   10.1934    4.9769    0.0000 C   0  0  0  0  0  0  0  0  0  0  0  0
   10.2796    4.1564    0.0000 C   0  0  0  0  0  0  0  0  0  0  0  0
    9.5259    3.8209    0.0000 N   0  0  0  0  0  0  0  0  0  0  0  0
    8.2303    2.8796    0.0000 N   0  0  0  0  0  0  0  0  0  0  0  0
    7.6783    2.2665    0.0000 N   0  0  0  0  0  0  0  0  0  0  0  0
  1  2  1  0  0  0  0
  2  3  2  0  0  0  0
  3  4  1  0  0  0  0
  4  5  1  0  0  0  0
  5  6  2  0  0  0  0
  6  7  1  0  0  0  0
  7  8  2  0  0  0  0
  8  9  1  0  0  0  0
  9 10  2  0  0  0  0
  2 10  1  0  0  0  0
  5 10  1  0  0  0  0
  7 11  1  0  0  0  0
 11 12  2  0  0  0  0
 11 13  1  0  0  0  0
 13 14  1  0  0  0  0
 14 15  2  0  0  0  0
 15 16  1  0  0  0  0
 16 17  2  0  0  0  0
 17 18  1  0  0  0  0
 18 19  2  0  0  0  0
 14 19  1  0  0  0  0
 17 20  1  0  0  0  0
 20 21  2  0  0  0  0
 21 22  1  0  0  0  0
 22 23  1  0  0  0  0
 23 24  1  0  0  0  0
 24 25  1  0  0  0  0
 25 26  2  0  0  0  0
 26 27  1  0  0  0  0
 27 28  2  0  0  0  0
 24 28  1  0  0  0  0
 22 29  2  0  0  0  0
 29 30  1  0  0  0  0
 20 30  1  0  0  0  0
M  END
> <ID>
CPD_1135

$$$$
CPD_1140
  Mrv1822 09091914012D          

 22 22  0  0  0  0            999 V2000
    2.8579    5.7750    0.0000 C   0  0  0  0  0  0  0  0  0  0  0  0
    2.1434    5.3625    0.0000 C   0  0  0  0  0  0  0  0  0  0  0  0
    2.1434    4.5375    0.0000 O   0  0  0  0  0  0  0  0  0  0  0  0
    1.4289    4.1250    0.0000 C   0  0  0  0  0  0  0  0  0  0  0  0
    0.7145    4.5375    0.0000 O   0  0  0  0  0  0  0  0  0  0  0  0
    1.4289    3.3000    0.0000 C   0  0  0  0  0  0  0  0  0  0  0  0
    0.6039    3.3000    0.0000 C   0  0  0  0  0  0  0  0  0  0  0  0
    2.2539    3.3000    0.0000 C   0  0  0  0  0  0  0  0  0  0  0  0
    1.4289    2.4750    0.0000 C   0  0  0  0  0  0  0  0  0  0  0  0
    2.1434    2.0625    0.0000 O   0  0  0  0  0  0  0  0  0  0  0  0
    0.7145    2.0625    0.0000 N   0  0  0  0  0  0  0  0  0  0  0  0
    0.7145    1.2375    0.0000 C   0  0  0  0  0  0  0  0  0  0  0  0
    1.4289    0.8250    0.0000 C   0  0  0  0  0  0  0  0  0  0  0  0
    1.4289   -0.0000    0.0000 C   0  0  0  0  0  0  0  0  0  0  0  0
    2.1434   -0.4125    0.0000 F   0  0  0  0  0  0  0  0  0  0  0  0
    0.7145   -0.4125    0.0000 C   0  0  0  0  0  0  0  0  0  0  0  0
    0.0000    0.0000    0.0000 C   0  0  0  0  0  0  0  0  0  0  0  0
   -0.7145   -0.4125    0.0000 Br  0  0  0  0  0  0  0  0  0  0  0  0
    0.0000    0.8250    0.0000 C   0  0  0  0  0  0  0  0  0  0  0  0
   -0.7145    1.2375    0.0000 O   0  0  0  0  0  0  0  0  0  0  0  0
   -1.4289    0.8250    0.0000 C   0  0  0  0  0  0  0  0  0  0  0  0
   -1.4289    0.0000    0.0000 C   0  0  0  0  0  0  0  0  0  0  0  0
  1  2  1  0  0  0  0
  2  3  1  0  0  0  0
  3  4  1  0  0  0  0
  4  5  2  0  0  0  0
  4  6  1  0  0  0  0
  6  7  1  0  0  0  0
  6  8  1  0  0  0  0
  6  9  1  0  0  0  0
  9 10  2  0  0  0  0
  9 11  1  0  0  0  0
 11 12  1  0  0  0  0
 12 13  2  0  0  0  0
 13 14  1  0  0  0  0
 14 15  1  0  0  0  0
 14 16  2  0  0  0  0
 16 17  1  0  0  0  0
 17 18  1  0  0  0  0
 17 19  2  0  0  0  0
 12 19  1  0  0  0  0
 19 20  1  0  0  0  0
 20 21  1  0  0  0  0
 21 22  1  0  0  0  0
M  END
> <ID>
CPD_1140

$$$$
CPD_1145
  Mrv1822 09091914012D          

 20 21  0  0  0  0            999 V2000
    2.1434   -0.4125    0.0000 C   0  0  0  0  0  0  0  0  0  0  0  0
    2.1434   -1.2375    0.0000 C   0  0  0  0  0  0  0  0  0  0  0  0
    1.4289   -1.6500    0.0000 O   0  0  0  0  0  0  0  0  0  0  0  0
    1.4289   -2.4750    0.0000 C   0  0  0  0  0  0  0  0  0  0  0  0
    2.1434   -2.8875    0.0000 C   0  0  0  0  0  0  0  0  0  0  0  0
    2.8579   -2.4750    0.0000 Br  0  0  0  0  0  0  0  0  0  0  0  0
    2.1434   -3.7125    0.0000 C   0  0  0  0  0  0  0  0  0  0  0  0
    1.4289   -4.1250    0.0000 C   0  0  0  0  0  0  0  0  0  0  0  0
    1.4289   -4.9500    0.0000 F   0  0  0  0  0  0  0  0  0  0  0  0
    0.7145   -3.7125    0.0000 C   0  0  0  0  0  0  0  0  0  0  0  0
    0.7145   -2.8875    0.0000 C   0  0  0  0  0  0  0  0  0  0  0  0
    0.0000   -2.4750    0.0000 N   0  0  0  0  0  0  0  0  0  0  0  0
   -0.7145   -2.8875    0.0000 C   0  0  0  0  0  0  0  0  0  0  0  0
   -0.7145   -3.7125    0.0000 O   0  0  0  0  0  0  0  0  0  0  0  0
   -1.4289   -2.4750    0.0000 C   0  0  0  0  0  0  0  0  0  0  0  0
   -2.1434   -2.8875    0.0000 C   0  0  0  0  0  0  0  0  0  0  0  0
   -2.8579   -2.4750    0.0000 C   0  0  0  0  0  0  0  0  0  0  0  0
   -2.8579   -1.6500    0.0000 C   0  0  0  0  0  0  0  0  0  0  0  0
   -2.1434   -1.2375    0.0000 C   0  0  0  0  0  0  0  0  0  0  0  0
   -1.4289   -1.6500    0.0000 C   0  0  0  0  0  0  0  0  0  0  0  0
  1  2  1  0  0  0  0
  2  3  1  0  0  0  0
  3  4  1  0  0  0  0
  4  5  2  0  0  0  0
  5  6  1  0  0  0  0
  5  7  1  0  0  0  0
  7  8  2  0  0  0  0
  8  9  1  0  0  0  0
  8 10  1  0  0  0  0
 10 11  2  0  0  0  0
  4 11  1  0  0  0  0
 11 12  1  0  0  0  0
 12 13  1  0  0  0  0
 13 14  2  0  0  0  0
 13 15  1  0  0  0  0
 15 16  2  0  0  0  0
 16 17  1  0  0  0  0
 17 18  2  0  0  0  0
 18 19  1  0  0  0  0
 19 20  2  0  0  0  0
 15 20  1  0  0  0  0
M  END
> <ID>
CPD_1145

$$$$
CPD_1150
  Mrv1822 09091914012D          

 32 34  0  0  0  0            999 V2000
   -1.0416   -3.2034    0.0000 C   0  0  0  0  0  0  0  0  0  0  0  0
   -0.3272   -3.6159    0.0000 C   0  0  0  0  0  0  0  0  0  0  0  0
   -0.7397   -4.3304    0.0000 C   0  0  0  0  0  0  0  0  0  0  0  0
    0.0853   -2.9015    0.0000 C   0  0  0  0  0  0  0  0  0  0  0  0
    0.3873   -4.0284    0.0000 O   0  0  0  0  0  0  0  0  0  0  0  0
    1.1018   -3.6159    0.0000 C   0  0  0  0  0  0  0  0  0  0  0  0
    1.8163   -4.0284    0.0000 O   0  0  0  0  0  0  0  0  0  0  0  0
    1.1018   -2.7909    0.0000 N   0  0  0  0  0  0  0  0  0  0  0  0
    0.3873   -2.3784    0.0000 C   0  0  0  0  0  0  0  0  0  0  0  0
    0.3873   -1.5534    0.0000 C   0  0  0  0  0  0  0  0  0  0  0  0
    1.1018   -1.1409    0.0000 C   0  0  0  0  0  0  0  0  0  0  0  0
    1.8163   -1.5534    0.0000 C   0  0  0  0  0  0  0  0  0  0  0  0
    1.8163   -2.3784    0.0000 C   0  0  0  0  0  0  0  0  0  0  0  0
    0.7145   -0.4125    0.0000 C   0  0  0  0  0  0  0  0  0  0  0  0
    0.6569    0.4105    0.0000 O   0  0  0  0  0  0  0  0  0  0  0  0
   -0.1100   -0.3837    0.0000 N   0  0  0  0  0  0  0  0  0  0  0  0
   -0.4973    0.3447    0.0000 C   0  0  0  0  0  0  0  0  0  0  0  0
   -1.3218    0.3735    0.0000 N   0  0  0  0  0  0  0  0  0  0  0  0
   -1.7092    1.1019    0.0000 C   0  0  0  0  0  0  0  0  0  0  0  0
   -2.5336    1.1307    0.0000 N   0  0  0  0  0  0  0  0  0  0  0  0
   -1.2720    1.8016    0.0000 C   0  0  0  0  0  0  0  0  0  0  0  0
   -1.6593    2.5300    0.0000 N   0  0  0  0  0  0  0  0  0  0  0  0
   -0.4475    1.7728    0.0000 C   0  0  0  0  0  0  0  0  0  0  0  0
   -0.0103    2.4724    0.0000 O   0  0  0  0  0  0  0  0  0  0  0  0
   -0.0602    1.0444    0.0000 N   0  0  0  0  0  0  0  0  0  0  0  0
    1.4891   -0.4125    0.0000 C   0  0  0  0  0  0  0  0  0  0  0  0
    1.0519    0.2871    0.0000 C   0  0  0  0  0  0  0  0  0  0  0  0
    1.4392    1.0156    0.0000 C   0  0  0  0  0  0  0  0  0  0  0  0
    2.2637    1.0444    0.0000 C   0  0  0  0  0  0  0  0  0  0  0  0
    2.6510    1.7728    0.0000 Cl  0  0  0  0  0  0  0  0  0  0  0  0
    2.7009    0.3447    0.0000 C   0  0  0  0  0  0  0  0  0  0  0  0
    2.3136   -0.3837    0.0000 C   0  0  0  0  0  0  0  0  0  0  0  0
  1  2  1  0  0  0  0
  2  3  1  0  0  0  0
  2  4  1  0  0  0  0
  2  5  1  0  0  0  0
  5  6  1  0  0  0  0
  6  7  2  0  0  0  0
  6  8  1  0  0  0  0
  8  9  1  0  0  0  0
  9 10  1  0  0  0  0
 10 11  1  0  0  0  0
 11 12  1  0  0  0  0
 12 13  1  0  0  0  0
  8 13  1  0  0  0  0
 11 14  1  0  0  0  0
 14 15  2  0  0  0  0
 14 16  1  0  0  0  0
 16 17  1  0  0  0  0
 17 18  2  0  0  0  0
 18 19  1  0  0  0  0
 19 20  1  0  0  0  0
 19 21  2  0  0  0  0
 21 22  1  0  0  0  0
 21 23  1  0  0  0  0
 23 24  2  0  0  0  0
 23 25  1  0  0  0  0
 17 25  1  0  0  0  0
 11 26  1  0  0  0  0
 26 27  2  0  0  0  0
 27 28  1  0  0  0  0
 28 29  2  0  0  0  0
 29 30  1  0  0  0  0
 29 31  1  0  0  0  0
 31 32  2  0  0  0  0
 26 32  1  0  0  0  0
M  END
> <ID>
CPD_1150

$$$$
CPD_1155
  Mrv1822 09091914012D          

 33 36  0  0  0  0            999 V2000
    0.7145   -5.3625    0.0000 C   0  0  0  0  0  0  0  0  0  0  0  0
    0.7145   -6.1875    0.0000 C   0  0  0  0  0  0  0  0  0  0  0  0
    1.4289   -6.6000    0.0000 C   0  0  0  0  0  0  0  0  0  0  0  0
    1.4289   -7.4250    0.0000 C   0  0  0  0  0  0  0  0  0  0  0  0
    2.1434   -7.8375    0.0000 C   0  0  0  0  0  0  0  0  0  0  0  0
    2.8579   -7.4250    0.0000 O   0  0  0  0  0  0  0  0  0  0  0  0
    2.8579   -6.6000    0.0000 C   0  0  0  0  0  0  0  0  0  0  0  0
    3.5724   -6.1875    0.0000 C   0  0  0  0  0  0  0  0  0  0  0  0
    3.5724   -5.3625    0.0000 C   0  0  0  0  0  0  0  0  0  0  0  0
    2.8579   -4.9500    0.0000 C   0  0  0  0  0  0  0  0  0  0  0  0
    2.8579   -4.1250    0.0000 C   0  0  0  0  0  0  0  0  0  0  0  0
    3.5724   -3.7125    0.0000 C   0  0  0  0  0  0  0  0  0  0  0  0
    4.2868   -4.1250    0.0000 N   0  0  0  0  0  0  0  0  0  0  0  0
    4.2868   -4.9500    0.0000 C   0  0  0  0  0  0  0  0  0  0  0  0
    5.0013   -3.7125    0.0000 C   0  0  0  0  0  0  0  0  0  0  0  0
    5.0013   -2.8875    0.0000 O   0  0  0  0  0  0  0  0  0  0  0  0
    5.7158   -4.1250    0.0000 C   0  0  0  0  0  0  0  0  0  0  0  0
    6.4302   -3.7125    0.0000 C   0  0  0  0  0  0  0  0  0  0  0  0
    7.1447   -4.1250    0.0000 C   0  0  0  0  0  0  0  0  0  0  0  0
    7.1447   -4.9500    0.0000 N   0  0  0  0  0  0  0  0  0  0  0  0
    6.4302   -5.3625    0.0000 C   0  0  0  0  0  0  0  0  0  0  0  0
    5.7158   -4.9500    0.0000 C   0  0  0  0  0  0  0  0  0  0  0  0
    7.8592   -3.7125    0.0000 N   0  0  0  0  0  0  0  0  0  0  0  0
    7.8592   -2.8875    0.0000 C   0  0  0  0  0  0  0  0  0  0  0  0
    8.5737   -2.4750    0.0000 C   0  0  0  0  0  0  0  0  0  0  0  0
    9.2881   -2.8875    0.0000 N   0  0  0  0  0  0  0  0  0  0  0  0
    9.2881   -3.7125    0.0000 C   0  0  0  0  0  0  0  0  0  0  0  0
   10.0026   -4.1250    0.0000 O   0  0  0  0  0  0  0  0  0  0  0  0
    8.5737   -4.1250    0.0000 C   0  0  0  0  0  0  0  0  0  0  0  0
    2.1434   -8.6625    0.0000 C   0  0  0  0  0  0  0  0  0  0  0  0
    1.4289   -9.0750    0.0000 C   0  0  0  0  0  0  0  0  0  0  0  0
    0.7145   -8.6625    0.0000 C   0  0  0  0  0  0  0  0  0  0  0  0
    0.7145   -7.8375    0.0000 C   0  0  0  0  0  0  0  0  0  0  0  0
  1  2  1  0  0  0  0
  2  3  1  0  0  0  0
  3  4  1  0  0  0  0
  4  5  2  0  0  0  0
  5  6  1  0  0  0  0
  6  7  1  0  0  0  0
  7  8  1  0  0  0  0
  8  9  1  0  0  0  0
  9 10  1  0  0  0  0
 10 11  1  0  0  0  0
 11 12  1  0  0  0  0
 12 13  1  0  0  0  0
 13 14  1  0  0  0  0
  9 14  1  0  0  0  0
 13 15  1  0  0  0  0
 15 16  2  0  0  0  0
 15 17  1  0  0  0  0
 17 18  2  0  0  0  0
 18 19  1  0  0  0  0
 19 20  2  0  0  0  0
 20 21  1  0  0  0  0
 21 22  2  0  0  0  0
 17 22  1  0  0  0  0
 19 23  1  0  0  0  0
 23 24  1  0  0  0  0
 24 25  1  0  0  0  0
 25 26  1  0  0  0  0
 26 27  1  0  0  0  0
 27 28  2  0  0  0  0
 27 29  1  0  0  0  0
 23 29  1  0  0  0  0
  5 30  1  0  0  0  0
 30 31  2  0  0  0  0
 31 32  1  0  0  0  0
 32 33  2  0  0  0  0
  4 33  1  0  0  0  0
M  END
> <ID>
CPD_1155

$$$$
CPD_1160
  Mrv1822 09091914012D          

 33 36  0  0  0  0            999 V2000
    3.6791    1.1759    0.0000 C   0  0  0  0  0  0  0  0  0  0  0  0
    3.6791    2.0009    0.0000 C   0  0  0  0  0  0  0  0  0  0  0  0
    2.9646    2.4134    0.0000 C   0  0  0  0  0  0  0  0  0  0  0  0
    2.9646    3.2384    0.0000 C   0  0  0  0  0  0  0  0  0  0  0  0
    2.2501    3.6509    0.0000 C   0  0  0  0  0  0  0  0  0  0  0  0
    1.5356    3.2384    0.0000 O   0  0  0  0  0  0  0  0  0  0  0  0
    1.5356    2.4134    0.0000 C   0  0  0  0  0  0  0  0  0  0  0  0
    0.8212    2.0009    0.0000 C   0  0  0  0  0  0  0  0  0  0  0  0
    0.8212    1.1759    0.0000 C   0  0  0  0  0  0  0  0  0  0  0  0
    1.5356    0.7634    0.0000 C   0  0  0  0  0  0  0  0  0  0  0  0
    1.5356   -0.0616    0.0000 C   0  0  0  0  0  0  0  0  0  0  0  0
    0.8212   -0.4741    0.0000 C   0  0  0  0  0  0  0  0  0  0  0  0
    0.1067   -0.0616    0.0000 N   0  0  0  0  0  0  0  0  0  0  0  0
    0.1067    0.7634    0.0000 C   0  0  0  0  0  0  0  0  0  0  0  0
   -0.6078   -0.4741    0.0000 C   0  0  0  0  0  0  0  0  0  0  0  0
   -1.3222   -0.0616    0.0000 O   0  0  0  0  0  0  0  0  0  0  0  0
   -0.6078   -1.2991    0.0000 C   0  0  0  0  0  0  0  0  0  0  0  0
    0.0597   -1.7840    0.0000 C   0  0  0  0  0  0  0  0  0  0  0  0
   -0.1953   -2.5687    0.0000 C   0  0  0  0  0  0  0  0  0  0  0  0
   -1.0203   -2.5687    0.0000 C   0  0  0  0  0  0  0  0  0  0  0  0
   -1.2752   -1.7840    0.0000 O   0  0  0  0  0  0  0  0  0  0  0  0
   -1.5052   -3.2361    0.0000 C   0  0  0  0  0  0  0  0  0  0  0  0
   -2.3257   -3.1499    0.0000 C   0  0  0  0  0  0  0  0  0  0  0  0
   -1.1696   -3.9898    0.0000 N   0  0  0  0  0  0  0  0  0  0  0  0
   -0.3491   -4.0760    0.0000 C   0  0  0  0  0  0  0  0  0  0  0  0
   -0.0136   -4.8297    0.0000 C   0  0  0  0  0  0  0  0  0  0  0  0
   -0.4985   -5.4971    0.0000 C   0  0  0  0  0  0  0  0  0  0  0  0
   -1.3190   -5.4109    0.0000 C   0  0  0  0  0  0  0  0  0  0  0  0
   -1.6546   -4.6572    0.0000 C   0  0  0  0  0  0  0  0  0  0  0  0
    2.2501    4.4759    0.0000 C   0  0  0  0  0  0  0  0  0  0  0  0
    2.9646    4.8884    0.0000 C   0  0  0  0  0  0  0  0  0  0  0  0
    3.6791    4.4759    0.0000 C   0  0  0  0  0  0  0  0  0  0  0  0
    3.6791    3.6509    0.0000 C   0  0  0  0  0  0  0  0  0  0  0  0
  1  2  1  0  0  0  0
  2  3  1  0  0  0  0
  3  4  1  0  0  0  0
  4  5  2  0  0  0  0
  5  6  1  0  0  0  0
  6  7  1  0  0  0  0
  7  8  1  0  0  0  0
  8  9  1  0  0  0  0
  9 10  1  0  0  0  0
 10 11  1  0  0  0  0
 11 12  1  0  0  0  0
 12 13  1  0  0  0  0
 13 14  1  0  0  0  0
  9 14  1  0  0  0  0
 13 15  1  0  0  0  0
 15 16  2  0  0  0  0
 15 17  1  0  0  0  0
 17 18  2  0  0  0  0
 18 19  1  0  0  0  0
 19 20  2  0  0  0  0
 20 21  1  0  0  0  0
 17 21  1  0  0  0  0
 20 22  1  0  0  0  0
 22 23  1  0  0  0  0
 22 24  1  0  0  0  0
 24 25  1  0  0  0  0
 25 26  1  0  0  0  0
 26 27  1  0  0  0  0
 27 28  1  0  0  0  0
 28 29  1  0  0  0  0
 24 29  1  0  0  0  0
  5 30  1  0  0  0  0
 30 31  2  0  0  0  0
 31 32  1  0  0  0  0
 32 33  2  0  0  0  0
  4 33  1  0  0  0  0
M  END
> <ID>
CPD_1160

$$$$
CPD_1165
  Mrv1822 09091914012D          

 34 37  0  0  0  0            999 V2000
   -2.8579    2.4750    0.0000 C   0  0  0  0  0  0  0  0  0  0  0  0
   -3.5724    2.0625    0.0000 C   0  0  0  0  0  0  0  0  0  0  0  0
   -3.5724    1.2375    0.0000 C   0  0  0  0  0  0  0  0  0  0  0  0
   -4.2868    0.8250    0.0000 C   0  0  0  0  0  0  0  0  0  0  0  0
   -4.2868    0.0000    0.0000 C   0  0  0  0  0  0  0  0  0  0  0  0
   -3.5724   -0.4125    0.0000 O   0  0  0  0  0  0  0  0  0  0  0  0
   -2.8579    0.0000    0.0000 C   0  0  0  0  0  0  0  0  0  0  0  0
   -2.1434   -0.4125    0.0000 C   0  0  0  0  0  0  0  0  0  0  0  0
   -1.4289   -0.0000    0.0000 C   0  0  0  0  0  0  0  0  0  0  0  0
   -1.4289    0.8250    0.0000 C   0  0  0  0  0  0  0  0  0  0  0  0
   -0.7145    1.2375    0.0000 C   0  0  0  0  0  0  0  0  0  0  0  0
    0.0000    0.8250    0.0000 C   0  0  0  0  0  0  0  0  0  0  0  0
    0.0000   -0.0000    0.0000 N   0  0  0  0  0  0  0  0  0  0  0  0
   -0.7145   -0.4125    0.0000 C   0  0  0  0  0  0  0  0  0  0  0  0
    0.7145   -0.4125    0.0000 C   0  0  0  0  0  0  0  0  0  0  0  0
    1.4289   -0.0000    0.0000 O   0  0  0  0  0  0  0  0  0  0  0  0
    0.7145   -1.2375    0.0000 C   0  0  0  0  0  0  0  0  0  0  0  0
    1.3819   -1.7224    0.0000 C   0  0  0  0  0  0  0  0  0  0  0  0
    2.1665   -1.4675    0.0000 N   0  0  0  0  0  0  0  0  0  0  0  0
    1.1270   -2.5070    0.0000 C   0  0  0  0  0  0  0  0  0  0  0  0
    0.3020   -2.5070    0.0000 N   0  0  0  0  0  0  0  0  0  0  0  0
    0.0470   -1.7224    0.0000 S   0  0  0  0  0  0  0  0  0  0  0  0
    1.6119   -3.1745    0.0000 C   0  0  0  0  0  0  0  0  0  0  0  0
    2.4324   -3.0882    0.0000 C   0  0  0  0  0  0  0  0  0  0  0  0
    2.9173   -3.7557    0.0000 C   0  0  0  0  0  0  0  0  0  0  0  0
    3.7378   -3.6695    0.0000 O   0  0  0  0  0  0  0  0  0  0  0  0
    4.2227   -4.3369    0.0000 C   0  0  0  0  0  0  0  0  0  0  0  0
    2.5817   -4.5094    0.0000 C   0  0  0  0  0  0  0  0  0  0  0  0
    1.7613   -4.5956    0.0000 C   0  0  0  0  0  0  0  0  0  0  0  0
    1.2763   -3.9282    0.0000 C   0  0  0  0  0  0  0  0  0  0  0  0
   -5.0013   -0.4125    0.0000 C   0  0  0  0  0  0  0  0  0  0  0  0
   -5.7158    0.0000    0.0000 C   0  0  0  0  0  0  0  0  0  0  0  0
   -5.7158    0.8250    0.0000 C   0  0  0  0  0  0  0  0  0  0  0  0
   -5.0013    1.2375    0.0000 C   0  0  0  0  0  0  0  0  0  0  0  0
  1  2  1  0  0  0  0
  2  3  1  0  0  0  0
  3  4  1  0  0  0  0
  4  5  2  0  0  0  0
  5  6  1  0  0  0  0
  6  7  1  0  0  0  0
  7  8  1  0  0  0  0
  8  9  1  0  0  0  0
  9 10  1  0  0  0  0
 10 11  1  0  0  0  0
 11 12  1  0  0  0  0
 12 13  1  0  0  0  0
 13 14  1  0  0  0  0
  9 14  1  0  0  0  0
 13 15  1  0  0  0  0
 15 16  2  0  0  0  0
 15 17  1  0  0  0  0
 17 18  2  0  0  0  0
 18 19  1  0  0  0  0
 18 20  1  0  0  0  0
 20 21  2  0  0  0  0
 21 22  1  0  0  0  0
 17 22  1  0  0  0  0
 20 23  1  0  0  0  0
 23 24  2  0  0  0  0
 24 25  1  0  0  0  0
 25 26  1  0  0  0  0
 26 27  1  0  0  0  0
 25 28  2  0  0  0  0
 28 29  1  0  0  0  0
 29 30  2  0  0  0  0
 23 30  1  0  0  0  0
  5 31  1  0  0  0  0
 31 32  2  0  0  0  0
 32 33  1  0  0  0  0
 33 34  2  0  0  0  0
  4 34  1  0  0  0  0
M  END
> <ID>
CPD_1165

$$$$
CPD_1170
  Mrv1822 09091914012D          

 29 30  0  0  0  0            999 V2000
    1.4289   -1.6500    0.0000 C   0  0  0  0  0  0  0  0  0  0  0  0
    0.7145   -2.0625    0.0000 C   0  0  0  0  0  0  0  0  0  0  0  0
    0.7145   -2.8875    0.0000 S   0  0  0  0  0  0  0  0  0  0  0  0
    1.5395   -2.8875    0.0000 O   0  0  0  0  0  0  0  0  0  0  0  0
   -0.1105   -2.8875    0.0000 O   0  0  0  0  0  0  0  0  0  0  0  0
    0.7145   -3.7125    0.0000 N   0  0  0  0  0  0  0  0  0  0  0  0
    1.4289   -4.1250    0.0000 C   0  0  0  0  0  0  0  0  0  0  0  0
    2.1434   -3.7125    0.0000 C   0  0  0  0  0  0  0  0  0  0  0  0
    2.1434   -2.8875    0.0000 O   0  0  0  0  0  0  0  0  0  0  0  0
    2.8579   -4.1250    0.0000 N   0  0  0  0  0  0  0  0  0  0  0  0
    3.5724   -3.7125    0.0000 C   0  0  0  0  0  0  0  0  0  0  0  0
    4.2868   -4.1250    0.0000 C   0  0  0  0  0  0  0  0  0  0  0  0
    5.0013   -3.7125    0.0000 C   0  0  0  0  0  0  0  0  0  0  0  0
    5.7158   -4.1250    0.0000 O   0  0  0  0  0  0  0  0  0  0  0  0
    5.0013   -2.8875    0.0000 O   0  0  0  0  0  0  0  0  0  0  0  0
    3.5724   -2.8875    0.0000 C   0  0  0  0  0  0  0  0  0  0  0  0
    4.3974   -2.8875    0.0000 C   0  0  0  0  0  0  0  0  0  0  0  0
    2.7474   -2.8875    0.0000 C   0  0  0  0  0  0  0  0  0  0  0  0
    3.5724   -2.0625    0.0000 C   0  0  0  0  0  0  0  0  0  0  0  0
    0.0000   -4.1250    0.0000 C   0  0  0  0  0  0  0  0  0  0  0  0
   -0.7145   -3.7125    0.0000 C   0  0  0  0  0  0  0  0  0  0  0  0
   -1.4289   -4.1250    0.0000 C   0  0  0  0  0  0  0  0  0  0  0  0
   -1.4289   -4.9500    0.0000 C   0  0  0  0  0  0  0  0  0  0  0  0
   -2.1434   -5.3625    0.0000 O   0  0  0  0  0  0  0  0  0  0  0  0
   -2.8579   -4.9500    0.0000 C   0  0  0  0  0  0  0  0  0  0  0  0
   -2.8579   -4.1250    0.0000 C   0  0  0  0  0  0  0  0  0  0  0  0
   -2.1434   -3.7125    0.0000 O   0  0  0  0  0  0  0  0  0  0  0  0
   -0.7145   -5.3625    0.0000 C   0  0  0  0  0  0  0  0  0  0  0  0
   -0.0000   -4.9500    0.0000 C   0  0  0  0  0  0  0  0  0  0  0  0
  1  2  1  0  0  0  0
  2  3  1  0  0  0  0
  3  4  2  0  0  0  0
  3  5  2  0  0  0  0
  3  6  1  0  0  0  0
  6  7  1  0  0  0  0
  7  8  1  0  0  0  0
  8  9  2  0  0  0  0
  8 10  1  0  0  0  0
 10 11  1  0  0  0  0
 11 12  1  0  0  0  0
 12 13  1  0  0  0  0
 13 14  1  0  0  0  0
 13 15  2  0  0  0  0
 11 16  1  0  0  0  0
 16 17  1  0  0  0  0
 16 18  1  0  0  0  0
 16 19  1  0  0  0  0
  6 20  1  0  0  0  0
 20 21  2  0  0  0  0
 21 22  1  0  0  0  0
 22 23  2  0  0  0  0
 23 24  1  0  0  0  0
 24 25  1  0  0  0  0
 25 26  1  0  0  0  0
 26 27  1  0  0  0  0
 22 27  1  0  0  0  0
 23 28  1  0  0  0  0
 28 29  2  0  0  0  0
 20 29  1  0  0  0  0
M  END
> <ID>
CPD_1170

$$$$
CPD_1175
  Mrv1822 09091914012D          

 25 26  0  0  0  0            999 V2000
    0.6039   -5.7750    0.0000 C   0  0  0  0  0  0  0  0  0  0  0  0
    1.4289   -5.7750    0.0000 C   0  0  0  0  0  0  0  0  0  0  0  0
    2.2539   -5.7750    0.0000 C   0  0  0  0  0  0  0  0  0  0  0  0
    1.4289   -6.6000    0.0000 C   0  0  0  0  0  0  0  0  0  0  0  0
    1.4289   -4.9500    0.0000 C   0  0  0  0  0  0  0  0  0  0  0  0
    2.1434   -4.5375    0.0000 C   0  0  0  0  0  0  0  0  0  0  0  0
    2.8579   -4.9500    0.0000 C   0  0  0  0  0  0  0  0  0  0  0  0
    3.5724   -4.5375    0.0000 O   0  0  0  0  0  0  0  0  0  0  0  0
    2.8579   -5.7750    0.0000 O   0  0  0  0  0  0  0  0  0  0  0  0
    0.7145   -4.5375    0.0000 N   0  0  0  0  0  0  0  0  0  0  0  0
    0.0000   -4.9500    0.0000 C   0  0  0  0  0  0  0  0  0  0  0  0
    0.0000   -5.7750    0.0000 O   0  0  0  0  0  0  0  0  0  0  0  0
   -0.7145   -4.5375    0.0000 C   0  0  0  0  0  0  0  0  0  0  0  0
   -1.4289   -4.9500    0.0000 C   0  0  0  0  0  0  0  0  0  0  0  0
   -2.1434   -4.5375    0.0000 C   0  0  0  0  0  0  0  0  0  0  0  0
   -2.1434   -3.7125    0.0000 C   0  0  0  0  0  0  0  0  0  0  0  0
   -2.8579   -3.3000    0.0000 N   0  0  0  0  0  0  0  0  0  0  0  0
   -3.5724   -3.7125    0.0000 C   0  0  0  0  0  0  0  0  0  0  0  0
   -4.2868   -3.3000    0.0000 C   0  0  0  0  0  0  0  0  0  0  0  0
   -4.2868   -2.4750    0.0000 O   0  0  0  0  0  0  0  0  0  0  0  0
   -3.5724   -2.0625    0.0000 C   0  0  0  0  0  0  0  0  0  0  0  0
   -2.8579   -2.4750    0.0000 C   0  0  0  0  0  0  0  0  0  0  0  0
   -1.4289   -3.3000    0.0000 C   0  0  0  0  0  0  0  0  0  0  0  0
   -1.4289   -2.4750    0.0000 Cl  0  0  0  0  0  0  0  0  0  0  0  0
   -0.7145   -3.7125    0.0000 C   0  0  0  0  0  0  0  0  0  0  0  0
  1  2  1  0  0  0  0
  2  3  1  0  0  0  0
  2  4  1  0  0  0  0
  2  5  1  0  0  0  0
  5  6  1  0  0  0  0
  6  7  1  0  0  0  0
  7  8  1  0  0  0  0
  7  9  2  0  0  0  0
  5 10  1  0  0  0  0
 10 11  1  0  0  0  0
 11 12  2  0  0  0  0
 11 13  1  0  0  0  0
 13 14  2  0  0  0  0
 14 15  1  0  0  0  0
 15 16  2  0  0  0  0
 16 17  1  0  0  0  0
 17 18  1  0  0  0  0
 18 19  1  0  0  0  0
 19 20  1  0  0  0  0
 20 21  1  0  0  0  0
 21 22  1  0  0  0  0
 17 22  1  0  0  0  0
 16 23  1  0  0  0  0
 23 24  1  0  0  0  0
 23 25  2  0  0  0  0
 13 25  1  0  0  0  0
M  END
> <ID>
CPD_1175

$$$$
CPD_1180
  Mrv1822 09091914012D          

 31 32  0  0  0  0            999 V2000
   -5.8659    2.3673    0.0000 C   0  0  0  0  0  0  0  0  0  0  0  0
   -5.0893    2.6456    0.0000 C   0  0  0  0  0  0  0  0  0  0  0  0
   -4.8110    1.8690    0.0000 C   0  0  0  0  0  0  0  0  0  0  0  0
   -5.3676    3.4222    0.0000 C   0  0  0  0  0  0  0  0  0  0  0  0
   -4.3126    2.9239    0.0000 O   0  0  0  0  0  0  0  0  0  0  0  0
   -3.6833    2.3905    0.0000 C   0  0  0  0  0  0  0  0  0  0  0  0
   -3.8306    1.5787    0.0000 O   0  0  0  0  0  0  0  0  0  0  0  0
   -2.9066    2.6687    0.0000 N   0  0  0  0  0  0  0  0  0  0  0  0
   -2.8204    3.4892    0.0000 C   0  0  0  0  0  0  0  0  0  0  0  0
   -2.1252    3.9334    0.0000 C   0  0  0  0  0  0  0  0  0  0  0  0
   -1.3444    3.6667    0.0000 C   0  0  0  0  0  0  0  0  0  0  0  0
   -1.0661    2.8901    0.0000 C   0  0  0  0  0  0  0  0  0  0  0  0
   -1.4998    2.1883    0.0000 C   0  0  0  0  0  0  0  0  0  0  0  0
   -2.3189    2.0898    0.0000 C   0  0  0  0  0  0  0  0  0  0  0  0
   -0.2457    2.8038    0.0000 N   0  0  0  0  0  0  0  0  0  0  0  0
    0.3064    3.4169    0.0000 C   0  0  0  0  0  0  0  0  0  0  0  0
    1.0600    3.0814    0.0000 C   0  0  0  0  0  0  0  0  0  0  0  0
    0.9738    2.2609    0.0000 C   0  0  0  0  0  0  0  0  0  0  0  0
    0.1668    2.0894    0.0000 N   0  0  0  0  0  0  0  0  0  0  0  0
    1.7745    3.4939    0.0000 C   0  0  0  0  0  0  0  0  0  0  0  0
    2.4890    3.0814    0.0000 O   0  0  0  0  0  0  0  0  0  0  0  0
    1.7745    4.3189    0.0000 N   0  0  0  0  0  0  0  0  0  0  0  0
    2.4890    4.7314    0.0000 C   0  0  0  0  0  0  0  0  0  0  0  0
    2.4890    5.5564    0.0000 C   0  0  0  0  0  0  0  0  0  0  0  0
    3.2035    5.9689    0.0000 C   0  0  0  0  0  0  0  0  0  0  0  0
    3.2035    6.7939    0.0000 O   0  0  0  0  0  0  0  0  0  0  0  0
    3.9179    5.5564    0.0000 O   0  0  0  0  0  0  0  0  0  0  0  0
    3.2035    4.3189    0.0000 C   0  0  0  0  0  0  0  0  0  0  0  0
    2.7910    3.6044    0.0000 C   0  0  0  0  0  0  0  0  0  0  0  0
    3.6160    5.0333    0.0000 C   0  0  0  0  0  0  0  0  0  0  0  0
    3.9179    3.9064    0.0000 C   0  0  0  0  0  0  0  0  0  0  0  0
  1  2  1  0  0  0  0
  2  3  1  0  0  0  0
  2  4  1  0  0  0  0
  2  5  1  0  0  0  0
  5  6  1  0  0  0  0
  6  7  2  0  0  0  0
  6  8  1  0  0  0  0
  8  9  1  0  0  0  0
  9 10  1  0  0  0  0
 10 11  1  0  0  0  0
 11 12  1  0  0  0  0
 12 13  1  0  0  0  0
 13 14  1  0  0  0  0
  8 14  1  0  0  0  0
 12 15  1  0  0  0  0
 15 16  1  0  0  0  0
 16 17  2  0  0  0  0
 17 18  1  0  0  0  0
 18 19  2  0  0  0  0
 15 19  1  0  0  0  0
 17 20  1  0  0  0  0
 20 21  2  0  0  0  0
 20 22  1  0  0  0  0
 22 23  1  0  0  0  0
 23 24  1  0  0  0  0
 24 25  1  0  0  0  0
 25 26  1  0  0  0  0
 25 27  2  0  0  0  0
 23 28  1  0  0  0  0
 28 29  1  0  0  0  0
 28 30  1  0  0  0  0
 28 31  1  0  0  0  0
M  END
> <ID>
CPD_1180

$$$$
CPD_1185
  Mrv1822 09091914012D          

 37 40  0  0  1  0            999 V2000
   -4.7313   -0.1657    0.0000 C   0  0  0  0  0  0  0  0  0  0  0  0
   -5.2713    0.4579    0.0000 C   0  0  0  0  0  0  0  0  0  0  0  0
   -6.0815    0.3020    0.0000 O   0  0  0  0  0  0  0  0  0  0  0  0
   -5.0013    1.2375    0.0000 O   0  0  0  0  0  0  0  0  0  0  0  0
   -4.1912    1.3934    0.0000 C   0  0  0  0  0  0  0  0  0  0  0  0
   -3.9211    2.1730    0.0000 C   0  0  2  0  0  0  0  0  0  0  0  0
   -3.1110    2.3289    0.0000 N   0  0  0  0  0  0  0  0  0  0  0  0
   -2.5709    1.7052    0.0000 C   0  0  0  0  0  0  0  0  0  0  0  0
   -2.8409    0.9257    0.0000 O   0  0  0  0  0  0  0  0  0  0  0  0
   -1.7608    1.8611    0.0000 O   0  0  0  0  0  0  0  0  0  0  0  0
   -1.2207    1.2375    0.0000 C   0  0  0  0  0  0  0  0  0  0  0  0
   -0.4105    1.3934    0.0000 C   0  0  0  0  0  0  0  0  0  0  0  0
   -0.1405    2.1730    0.0000 C   0  0  0  0  0  0  0  0  0  0  0  0
    0.6696    2.3289    0.0000 C   0  0  0  0  0  0  0  0  0  0  0  0
    1.2097    1.7052    0.0000 C   0  0  0  0  0  0  0  0  0  0  0  0
    0.9397    0.9257    0.0000 C   0  0  0  0  0  0  0  0  0  0  0  0
    0.1296    0.7698    0.0000 C   0  0  0  0  0  0  0  0  0  0  0  0
   -4.4612    2.7966    0.0000 C   0  0  0  0  0  0  0  0  0  0  0  0
   -4.1912    3.5762    0.0000 O   0  0  0  0  0  0  0  0  0  0  0  0
   -5.2713    2.6407    0.0000 N   0  0  0  0  0  0  0  0  0  0  0  0
   -5.5414    1.8611    0.0000 C   0  0  0  0  0  0  0  0  0  0  0  0
   -6.3515    1.7052    0.0000 C   0  0  0  0  0  0  0  0  0  0  0  0
   -6.8916    2.3289    0.0000 C   0  0  0  0  0  0  0  0  0  0  0  0
   -6.6216    3.1084    0.0000 C   0  0  0  0  0  0  0  0  0  0  0  0
   -7.1617    3.7321    0.0000 C   0  0  0  0  0  0  0  0  0  0  0  0
   -7.9718    3.5762    0.0000 C   0  0  0  0  0  0  0  0  0  0  0  0
   -8.5119    4.1998    0.0000 N   0  0  0  0  0  0  0  0  0  0  0  0
   -8.2418    4.9793    0.0000 C   0  0  0  0  0  0  0  0  0  0  0  0
   -8.7819    5.6030    0.0000 C   0  0  0  0  0  0  0  0  0  0  0  0
   -9.5921    5.4471    0.0000 C   0  0  0  0  0  0  0  0  0  0  0  0
   -9.8621    4.6675    0.0000 C   0  0  0  0  0  0  0  0  0  0  0  0
   -9.3220    4.0439    0.0000 C   0  0  0  0  0  0  0  0  0  0  0  0
   -9.5921    3.2643    0.0000 C   0  0  0  0  0  0  0  0  0  0  0  0
  -10.4022    3.1084    0.0000 C   0  0  0  0  0  0  0  0  0  0  0  0
  -10.9423    3.7321    0.0000 C   0  0  0  0  0  0  0  0  0  0  0  0
  -10.6722    4.5116    0.0000 C   0  0  0  0  0  0  0  0  0  0  0  0
   -5.8114    3.2643    0.0000 C   0  0  0  0  0  0  0  0  0  0  0  0
  1  2  1  0  0  0  0
  2  3  2  0  0  0  0
  2  4  1  0  0  0  0
  4  5  1  0  0  0  0
  6  5  1  0  0  0  0
  6  7  1  1  0  0  0
  7  8  1  0  0  0  0
  8  9  2  0  0  0  0
  8 10  1  0  0  0  0
 10 11  1  0  0  0  0
 11 12  1  0  0  0  0
 12 13  2  0  0  0  0
 13 14  1  0  0  0  0
 14 15  2  0  0  0  0
 15 16  1  0  0  0  0
 16 17  2  0  0  0  0
 12 17  1  0  0  0  0
  6 18  1  0  0  0  0
 18 19  2  0  0  0  0
 18 20  1  0  0  0  0
 20 21  1  0  0  0  0
 21 22  1  0  0  0  0
 22 23  1  0  0  0  0
 23 24  1  0  0  0  0
 24 25  1  0  0  0  0
 25 26  1  0  0  0  0
 26 27  1  0  0  0  0
 27 28  1  0  0  0  0
 28 29  1  0  0  0  0
 29 30  1  0  0  0  0
 30 31  1  0  0  0  0
 31 32  2  0  0  0  0
 27 32  1  0  0  0  0
 32 33  1  0  0  0  0
 33 34  2  0  0  0  0
 34 35  1  0  0  0  0
 35 36  2  0  0  0  0
 31 36  1  0  0  0  0
 24 37  1  0  0  0  0
 20 37  1  0  0  0  0
M  END
> <ID>
CPD_1185

$$$$
CPD_1190
  Mrv1822 09091914012D          

 38 43  0  0  0  0            999 V2000
   -6.5317   10.3233    0.0000 C   0  0  0  0  0  0  0  0  0  0  0  0
   -6.3602    9.5164    0.0000 C   0  0  0  0  0  0  0  0  0  0  0  0
   -5.5755    9.2614    0.0000 C   0  0  0  0  0  0  0  0  0  0  0  0
   -4.9081    9.7463    0.0000 N   0  0  0  0  0  0  0  0  0  0  0  0
   -4.2407    9.2614    0.0000 O   0  0  0  0  0  0  0  0  0  0  0  0
   -4.4956    8.4768    0.0000 C   0  0  0  0  0  0  0  0  0  0  0  0
   -5.3206    8.4768    0.0000 N   0  0  0  0  0  0  0  0  0  0  0  0
   -4.0107    7.8094    0.0000 C   0  0  0  0  0  0  0  0  0  0  0  0
   -3.1902    7.8956    0.0000 C   0  0  0  0  0  0  0  0  0  0  0  0
   -2.7053    7.2282    0.0000 N   0  0  0  0  0  0  0  0  0  0  0  0
   -3.0408    6.4745    0.0000 C   0  0  0  0  0  0  0  0  0  0  0  0
   -3.8613    6.3882    0.0000 C   0  0  0  0  0  0  0  0  0  0  0  0
   -4.3462    7.0557    0.0000 C   0  0  0  0  0  0  0  0  0  0  0  0
   -2.5559    5.8070    0.0000 N   0  0  0  0  0  0  0  0  0  0  0  0
   -1.7309    5.8070    0.0000 C   0  0  0  0  0  0  0  0  0  0  0  0
   -1.4760    5.0224    0.0000 N   0  0  0  0  0  0  0  0  0  0  0  0
   -2.1434    4.5375    0.0000 C   0  0  0  0  0  0  0  0  0  0  0  0
   -2.8109    5.0224    0.0000 C   0  0  0  0  0  0  0  0  0  0  0  0
   -2.1434    3.7125    0.0000 C   0  0  0  0  0  0  0  0  0  0  0  0
   -2.8579    3.3000    0.0000 O   0  0  0  0  0  0  0  0  0  0  0  0
   -1.4289    3.3000    0.0000 N   0  0  0  0  0  0  0  0  0  0  0  0
   -0.7145    3.7125    0.0000 C   0  0  0  0  0  0  0  0  0  0  0  0
    0.0000    3.3000    0.0000 C   0  0  0  0  0  0  0  0  0  0  0  0
    0.0000    2.4750    0.0000 C   0  0  0  0  0  0  0  0  0  0  0  0
   -0.7145    2.0625    0.0000 C   0  0  0  0  0  0  0  0  0  0  0  0
   -0.7145    1.2375    0.0000 C   0  0  0  0  0  0  0  0  0  0  0  0
    0.0000    0.8250    0.0000 C   0  0  0  0  0  0  0  0  0  0  0  0
    0.0000   -0.0000    0.0000 N   0  0  0  0  0  0  0  0  0  0  0  0
   -0.7145   -0.4125    0.0000 C   0  0  0  0  0  0  0  0  0  0  0  0
   -0.7145   -1.2375    0.0000 C   0  0  0  0  0  0  0  0  0  0  0  0
    0.0000   -1.6500    0.0000 C   0  0  0  0  0  0  0  0  0  0  0  0
    0.7145   -1.2375    0.0000 C   0  0  0  0  0  0  0  0  0  0  0  0
    0.7145   -0.4125    0.0000 C   0  0  0  0  0  0  0  0  0  0  0  0
    1.4289   -0.0000    0.0000 C   0  0  0  0  0  0  0  0  0  0  0  0
    2.1434   -0.4125    0.0000 C   0  0  0  0  0  0  0  0  0  0  0  0
    2.1434   -1.2375    0.0000 C   0  0  0  0  0  0  0  0  0  0  0  0
    1.4289   -1.6500    0.0000 C   0  0  0  0  0  0  0  0  0  0  0  0
   -1.4289    2.4750    0.0000 C   0  0  0  0  0  0  0  0  0  0  0  0
  1  2  1  0  0  0  0
  2  3  1  0  0  0  0
  3  4  2  0  0  0  0
  4  5  1  0  0  0  0
  5  6  1  0  0  0  0
  6  7  2  0  0  0  0
  3  7  1  0  0  0  0
  6  8  1  0  0  0  0
  8  9  2  0  0  0  0
  9 10  1  0  0  0  0
 10 11  2  0  0  0  0
 11 12  1  0  0  0  0
 12 13  2  0  0  0  0
  8 13  1  0  0  0  0
 11 14  1  0  0  0  0
 14 15  1  0  0  0  0
 15 16  2  0  0  0  0
 16 17  1  0  0  0  0
 17 18  2  0  0  0  0
 14 18  1  0  0  0  0
 17 19  1  0  0  0  0
 19 20  2  0  0  0  0
 19 21  1  0  0  0  0
 21 22  1  0  0  0  0
 22 23  1  0  0  0  0
 23 24  1  0  0  0  0
 24 25  1  0  0  0  0
 25 26  1  0  0  0  0
 26 27  1  0  0  0  0
 27 28  1  0  0  0  0
 28 29  1  0  0  0  0
 29 30  1  0  0  0  0
 30 31  1  0  0  0  0
 31 32  1  0  0  0  0
 32 33  2  0  0  0  0
 28 33  1  0  0  0  0
 33 34  1  0  0  0  0
 34 35  2  0  0  0  0
 35 36  1  0  0  0  0
 36 37  2  0  0  0  0
 32 37  1  0  0  0  0
 25 38  1  0  0  0  0
 21 38  1  0  0  0  0
M  END
> <ID>
CPD_1190

$$$$
CPD_1195
  Mrv1822 09091914012D          

 35 37  0  0  1  0            999 V2000
   -3.1034    0.7310    0.0000 C   0  0  0  0  0  0  0  0  0  0  0  0
   -2.6909    0.0165    0.0000 C   0  0  0  0  0  0  0  0  0  0  0  0
   -1.8659    0.0165    0.0000 O   0  0  0  0  0  0  0  0  0  0  0  0
   -1.4534   -0.6979    0.0000 C   0  0  0  0  0  0  0  0  0  0  0  0
   -1.8659   -1.4124    0.0000 O   0  0  0  0  0  0  0  0  0  0  0  0
   -0.6284   -0.6979    0.0000 C   0  0  0  0  0  0  0  0  0  0  0  0
   -0.1435   -1.3654    0.0000 C   0  0  0  0  0  0  0  0  0  0  0  0
   -0.3984   -2.1500    0.0000 C   0  0  0  0  0  0  0  0  0  0  0  0
    0.6411   -1.1104    0.0000 C   0  0  0  0  0  0  0  0  0  0  0  0
    0.6411   -0.2854    0.0000 C   0  0  0  0  0  0  0  0  0  0  0  0
    1.3556    0.1271    0.0000 N   0  0  0  0  0  0  0  0  0  0  0  0
    2.0701   -0.2854    0.0000 C   0  0  0  0  0  0  0  0  0  0  0  0
    2.0701   -1.1104    0.0000 C   0  0  0  0  0  0  0  0  0  0  0  0
    2.7845   -1.5229    0.0000 C   0  0  0  0  0  0  0  0  0  0  0  0
    3.4990   -1.1104    0.0000 O   0  0  0  0  0  0  0  0  0  0  0  0
    2.7845   -2.3479    0.0000 N   0  0  0  0  0  0  0  0  0  0  0  0
    3.4990   -2.7604    0.0000 C   0  0  0  0  0  0  0  0  0  0  0  0
    3.4990   -3.5854    0.0000 C   0  0  0  0  0  0  0  0  0  0  0  0
    2.7845   -3.9979    0.0000 N   0  0  0  0  0  0  0  0  0  0  0  0
    2.0701   -3.5854    0.0000 C   0  0  2  0  0  0  0  0  0  0  0  0
    1.3556   -3.9979    0.0000 C   0  0  0  0  0  0  0  0  0  0  0  0
    0.6411   -3.5854    0.0000 C   0  0  0  0  0  0  0  0  0  0  0  0
   -0.0734   -3.9979    0.0000 O   0  0  0  0  0  0  0  0  0  0  0  0
   -0.7878   -3.5854    0.0000 C   0  0  0  0  0  0  0  0  0  0  0  0
    2.0701   -2.7604    0.0000 C   0  0  0  0  0  0  0  0  0  0  0  0
    2.7845   -4.8229    0.0000 C   0  0  0  0  0  0  0  0  0  0  0  0
    2.0701   -5.2354    0.0000 O   0  0  0  0  0  0  0  0  0  0  0  0
    3.4990   -5.2354    0.0000 O   0  0  0  0  0  0  0  0  0  0  0  0
    4.2135   -4.8229    0.0000 C   0  0  0  0  0  0  0  0  0  0  0  0
    4.9279   -4.4104    0.0000 C   0  0  0  0  0  0  0  0  0  0  0  0
    4.6260   -5.5374    0.0000 C   0  0  0  0  0  0  0  0  0  0  0  0
    3.8010   -4.1085    0.0000 C   0  0  0  0  0  0  0  0  0  0  0  0
    1.3556   -1.5229    0.0000 C   0  0  0  0  0  0  0  0  0  0  0  0
    1.3556   -2.3479    0.0000 O   0  0  0  0  0  0  0  0  0  0  0  0
   -0.1435   -0.0305    0.0000 S   0  0  0  0  0  0  0  0  0  0  0  0
  1  2  1  0  0  0  0
  2  3  1  0  0  0  0
  3  4  1  0  0  0  0
  4  5  2  0  0  0  0
  4  6  1  0  0  0  0
  6  7  2  0  0  0  0
  7  8  1  0  0  0  0
  7  9  1  0  0  0  0
  9 10  2  0  0  0  0
 10 11  1  0  0  0  0
 11 12  1  0  0  0  0
 12 13  2  0  0  0  0
 13 14  1  0  0  0  0
 14 15  2  0  0  0  0
 14 16  1  0  0  0  0
 16 17  1  0  0  0  0
 17 18  1  0  0  0  0
 18 19  1  0  0  0  0
 20 19  1  0  0  0  0
 20 21  1  6  0  0  0
 21 22  1  0  0  0  0
 22 23  1  0  0  0  0
 23 24  1  0  0  0  0
 20 25  1  0  0  0  0
 16 25  1  0  0  0  0
 19 26  1  0  0  0  0
 26 27  2  0  0  0  0
 26 28  1  0  0  0  0
 28 29  1  0  0  0  0
 29 30  1  0  0  0  0
 29 31  1  0  0  0  0
 29 32  1  0  0  0  0
 13 33  1  0  0  0  0
  9 33  1  0  0  0  0
 33 34  2  0  0  0  0
 10 35  1  0  0  0  0
  6 35  1  0  0  0  0
M  END
> <ID>
CPD_1195

$$$$
CPD_1200
  Mrv1822 09091914012D          

 28 29  0  0  1  0            999 V2000
    1.4289   -0.0000    0.0000 C   0  0  0  0  0  0  0  0  0  0  0  0
    0.7145   -0.4125    0.0000 O   0  0  0  0  0  0  0  0  0  0  0  0
    0.7145   -1.2375    0.0000 C   0  0  0  0  0  0  0  0  0  0  0  0
    1.4289   -1.6500    0.0000 C   0  0  0  0  0  0  0  0  0  0  0  0
    1.4289   -2.4750    0.0000 C   0  0  2  0  0  0  0  0  0  0  0  0
    2.1434   -2.8875    0.0000 C   0  0  0  0  0  0  0  0  0  0  0  0
    2.1434   -3.7125    0.0000 N   0  0  0  0  0  0  0  0  0  0  0  0
    1.4289   -4.1250    0.0000 C   0  0  0  0  0  0  0  0  0  0  0  0
    0.7145   -3.7125    0.0000 C   0  0  0  0  0  0  0  0  0  0  0  0
    0.7145   -2.8875    0.0000 N   0  0  0  0  0  0  0  0  0  0  0  0
    0.0000   -2.4750    0.0000 C   0  0  0  0  0  0  0  0  0  0  0  0
   -0.7145   -2.8875    0.0000 O   0  0  0  0  0  0  0  0  0  0  0  0
    0.0000   -1.6500    0.0000 O   0  0  0  0  0  0  0  0  0  0  0  0
   -0.7145   -1.2375    0.0000 C   0  0  0  0  0  0  0  0  0  0  0  0
   -1.4289   -0.8250    0.0000 C   0  0  0  0  0  0  0  0  0  0  0  0
   -1.1270   -1.9520    0.0000 C   0  0  0  0  0  0  0  0  0  0  0  0
   -0.3020   -0.5230    0.0000 C   0  0  0  0  0  0  0  0  0  0  0  0
    2.8579   -4.1250    0.0000 C   0  0  0  0  0  0  0  0  0  0  0  0
    2.8579   -4.9500    0.0000 O   0  0  0  0  0  0  0  0  0  0  0  0
    3.5724   -3.7125    0.0000 C   0  0  0  0  0  0  0  0  0  0  0  0
    4.2868   -4.1250    0.0000 C   0  0  0  0  0  0  0  0  0  0  0  0
    5.0013   -3.7125    0.0000 C   0  0  0  0  0  0  0  0  0  0  0  0
    5.0013   -2.8875    0.0000 N   0  0  0  0  0  0  0  0  0  0  0  0
    5.7158   -4.1250    0.0000 C   0  0  0  0  0  0  0  0  0  0  0  0
    5.7158   -4.9500    0.0000 C   0  0  0  0  0  0  0  0  0  0  0  0
    6.4302   -5.3625    0.0000 N   0  0  0  0  0  0  0  0  0  0  0  0
    5.0013   -5.3625    0.0000 C   0  0  0  0  0  0  0  0  0  0  0  0
    4.2868   -4.9500    0.0000 C   0  0  0  0  0  0  0  0  0  0  0  0
  1  2  1  0  0  0  0
  2  3  1  0  0  0  0
  3  4  1  0  0  0  0
  5  4  1  6  0  0  0
  5  6  1  0  0  0  0
  6  7  1  0  0  0  0
  7  8  1  0  0  0  0
  8  9  1  0  0  0  0
  9 10  1  0  0  0  0
  5 10  1  0  0  0  0
 10 11  1  0  0  0  0
 11 12  2  0  0  0  0
 11 13  1  0  0  0  0
 13 14  1  0  0  0  0
 14 15  1  0  0  0  0
 14 16  1  0  0  0  0
 14 17  1  0  0  0  0
  7 18  1  0  0  0  0
 18 19  2  0  0  0  0
 18 20  1  0  0  0  0
 20 21  1  0  0  0  0
 21 22  2  0  0  0  0
 22 23  1  0  0  0  0
 22 24  1  0  0  0  0
 24 25  2  0  0  0  0
 25 26  1  0  0  0  0
 25 27  1  0  0  0  0
 27 28  2  0  0  0  0
 21 28  1  0  0  0  0
M  END
> <ID>
CPD_1200

$$$$
CPD_1205
  Mrv1822 09091914012D          

 34 35  0  0  1  0            999 V2000
   -1.4289    3.3000    0.0000 C   0  0  0  0  0  0  0  0  0  0  0  0
   -0.7145    2.8875    0.0000 O   0  0  0  0  0  0  0  0  0  0  0  0
   -0.7145    2.0625    0.0000 C   0  0  0  0  0  0  0  0  0  0  0  0
    0.0000    1.6500    0.0000 C   0  0  0  0  0  0  0  0  0  0  0  0
    0.0000    0.8250    0.0000 C   0  0  2  0  0  0  0  0  0  0  0  0
    0.7145    0.4125    0.0000 C   0  0  0  0  0  0  0  0  0  0  0  0
    0.7145   -0.4125    0.0000 N   0  0  0  0  0  0  0  0  0  0  0  0
    0.0000   -0.8250    0.0000 C   0  0  0  0  0  0  0  0  0  0  0  0
   -0.7145   -0.4125    0.0000 C   0  0  0  0  0  0  0  0  0  0  0  0
   -0.7145    0.4125    0.0000 N   0  0  0  0  0  0  0  0  0  0  0  0
   -1.4289    0.8250    0.0000 C   0  0  0  0  0  0  0  0  0  0  0  0
   -2.1434    0.4125    0.0000 O   0  0  0  0  0  0  0  0  0  0  0  0
   -1.4289    1.6500    0.0000 O   0  0  0  0  0  0  0  0  0  0  0  0
   -2.1434    2.0625    0.0000 C   0  0  0  0  0  0  0  0  0  0  0  0
   -2.8579    2.4750    0.0000 C   0  0  0  0  0  0  0  0  0  0  0  0
   -2.5559    1.3480    0.0000 C   0  0  0  0  0  0  0  0  0  0  0  0
   -1.7309    2.7770    0.0000 C   0  0  0  0  0  0  0  0  0  0  0  0
    1.4289   -0.8250    0.0000 C   0  0  0  0  0  0  0  0  0  0  0  0
    2.1434   -0.4125    0.0000 O   0  0  0  0  0  0  0  0  0  0  0  0
    1.4289   -1.6500    0.0000 C   0  0  0  0  0  0  0  0  0  0  0  0
    2.1434   -2.0625    0.0000 N   0  0  0  0  0  0  0  0  0  0  0  0
    2.1434   -2.8875    0.0000 C   0  0  0  0  0  0  0  0  0  0  0  0
    2.8579   -3.3000    0.0000 C   0  0  0  0  0  0  0  0  0  0  0  0
    2.8579   -4.1250    0.0000 C   0  0  0  0  0  0  0  0  0  0  0  0
    2.1434   -4.5375    0.0000 C   0  0  0  0  0  0  0  0  0  0  0  0
    1.4289   -4.1250    0.0000 C   0  0  0  0  0  0  0  0  0  0  0  0
    1.4289   -3.3000    0.0000 C   0  0  0  0  0  0  0  0  0  0  0  0
    2.1434   -5.3625    0.0000 C   0  0  0  0  0  0  0  0  0  0  0  0
    2.8579   -5.7750    0.0000 C   0  0  0  0  0  0  0  0  0  0  0  0
    1.4289   -5.7750    0.0000 C   0  0  0  0  0  0  0  0  0  0  0  0
    2.8579   -1.6500    0.0000 S   0  0  0  0  0  0  0  0  0  0  0  0
    3.2704   -2.3645    0.0000 C   0  0  0  0  0  0  0  0  0  0  0  0
    2.4454   -0.9355    0.0000 O   0  0  0  0  0  0  0  0  0  0  0  0
    3.5724   -1.2375    0.0000 O   0  0  0  0  0  0  0  0  0  0  0  0
  1  2  1  0  0  0  0
  2  3  1  0  0  0  0
  3  4  1  0  0  0  0
  5  4  1  6  0  0  0
  5  6  1  0  0  0  0
  6  7  1  0  0  0  0
  7  8  1  0  0  0  0
  8  9  1  0  0  0  0
  9 10  1  0  0  0  0
  5 10  1  0  0  0  0
 10 11  1  0  0  0  0
 11 12  2  0  0  0  0
 11 13  1  0  0  0  0
 13 14  1  0  0  0  0
 14 15  1  0  0  0  0
 14 16  1  0  0  0  0
 14 17  1  0  0  0  0
  7 18  1  0  0  0  0
 18 19  2  0  0  0  0
 18 20  1  0  0  0  0
 20 21  1  0  0  0  0
 21 22  1  0  0  0  0
 22 23  2  0  0  0  0
 23 24  1  0  0  0  0
 24 25  2  0  0  0  0
 25 26  1  0  0  0  0
 26 27  2  0  0  0  0
 22 27  1  0  0  0  0
 25 28  1  0  0  0  0
 28 29  1  0  0  0  0
 28 30  1  0  0  0  0
 21 31  1  0  0  0  0
 31 32  1  0  0  0  0
 31 33  2  0  0  0  0
 31 34  2  0  0  0  0
M  END
> <ID>
CPD_1205

$$$$
CPD_1210
  Mrv1822 09091914012D          

 34 39  0  0  0  0            999 V2000
   -0.2658   -1.2272    0.0000 N   0  0  0  0  0  0  0  0  0  0  0  0
   -1.0728   -1.0556    0.0000 C   0  0  0  0  0  0  0  0  0  0  0  0
   -1.4084   -0.3020    0.0000 C   0  0  0  0  0  0  0  0  0  0  0  0
   -2.2288   -0.3882    0.0000 S   0  0  0  0  0  0  0  0  0  0  0  0
   -2.4004   -1.1952    0.0000 C   0  0  0  0  0  0  0  0  0  0  0  0
   -1.6859   -1.6077    0.0000 C   0  0  0  0  0  0  0  0  0  0  0  0
   -1.6859   -2.4327    0.0000 C   0  0  0  0  0  0  0  0  0  0  0  0
   -2.4004   -2.8452    0.0000 C   0  0  0  0  0  0  0  0  0  0  0  0
   -3.1148   -2.4327    0.0000 C   0  0  0  0  0  0  0  0  0  0  0  0
   -3.1148   -1.6077    0.0000 N   0  0  0  0  0  0  0  0  0  0  0  0
   -3.8293   -2.8452    0.0000 C   0  0  0  0  0  0  0  0  0  0  0  0
   -3.8293   -3.6702    0.0000 C   0  0  0  0  0  0  0  0  0  0  0  0
   -4.5438   -4.0827    0.0000 C   0  0  0  0  0  0  0  0  0  0  0  0
   -5.2583   -3.6702    0.0000 C   0  0  0  0  0  0  0  0  0  0  0  0
   -5.2583   -2.8452    0.0000 C   0  0  0  0  0  0  0  0  0  0  0  0
   -4.5438   -2.4327    0.0000 C   0  0  0  0  0  0  0  0  0  0  0  0
   -0.9714   -2.8452    0.0000 C   0  0  0  0  0  0  0  0  0  0  0  0
   -0.2570   -2.4327    0.0000 C   0  0  0  0  0  0  0  0  0  0  0  0
    0.4575   -2.8452    0.0000 C   0  0  0  0  0  0  0  0  0  0  0  0
    0.4575   -3.6702    0.0000 C   0  0  0  0  0  0  0  0  0  0  0  0
    1.1720   -4.0827    0.0000 Cl  0  0  0  0  0  0  0  0  0  0  0  0
   -0.2570   -4.0827    0.0000 C   0  0  0  0  0  0  0  0  0  0  0  0
   -0.9714   -3.6702    0.0000 C   0  0  0  0  0  0  0  0  0  0  0  0
   -0.9959    0.4125    0.0000 C   0  0  0  0  0  0  0  0  0  0  0  0
   -1.4084    1.1270    0.0000 O   0  0  0  0  0  0  0  0  0  0  0  0
   -0.1709    0.4125    0.0000 N   0  0  0  0  0  0  0  0  0  0  0  0
    0.4125    0.9959    0.0000 C   0  0  0  0  0  0  0  0  0  0  0  0
    0.9959    0.4125    0.0000 C   0  0  0  0  0  0  0  0  0  0  0  0
    0.4125   -0.1709    0.0000 C   0  0  0  0  0  0  0  0  0  0  0  0
    1.4084    1.1270    0.0000 C   0  0  0  0  0  0  0  0  0  0  0  0
    2.2334    1.1270    0.0000 C   0  0  0  0  0  0  0  0  0  0  0  0
    2.6459    0.4125    0.0000 C   0  0  0  0  0  0  0  0  0  0  0  0
    2.2334   -0.3020    0.0000 C   0  0  0  0  0  0  0  0  0  0  0  0
    1.4084   -0.3020    0.0000 O   0  0  0  0  0  0  0  0  0  0  0  0
  1  2  1  0  0  0  0
  2  3  2  0  0  0  0
  3  4  1  0  0  0  0
  4  5  1  0  0  0  0
  5  6  2  0  0  0  0
  2  6  1  0  0  0  0
  6  7  1  0  0  0  0
  7  8  2  0  0  0  0
  8  9  1  0  0  0  0
  9 10  2  0  0  0  0
  5 10  1  0  0  0  0
  9 11  1  0  0  0  0
 11 12  2  0  0  0  0
 12 13  1  0  0  0  0
 13 14  2  0  0  0  0
 14 15  1  0  0  0  0
 15 16  2  0  0  0  0
 11 16  1  0  0  0  0
  7 17  1  0  0  0  0
 17 18  2  0  0  0  0
 18 19  1  0  0  0  0
 19 20  2  0  0  0  0
 20 21  1  0  0  0  0
 20 22  1  0  0  0  0
 22 23  2  0  0  0  0
 17 23  1  0  0  0  0
  3 24  1  0  0  0  0
 24 25  2  0  0  0  0
 24 26  1  0  0  0  0
 26 27  1  0  0  0  0
 27 28  1  0  0  0  0
 28 29  1  0  0  0  0
 26 29  1  0  0  0  0
 28 30  1  0  0  0  0
 30 31  1  0  0  0  0
 31 32  1  0  0  0  0
 32 33  1  0  0  0  0
 33 34  1  0  0  0  0
 28 34  1  0  0  0  0
M  END
> <ID>
CPD_1210

$$$$
CPD_1215
  Mrv1822 09091914012D          

 32 35  0  0  0  0            999 V2000
    1.2249   -1.2824    0.0000 O   0  0  0  0  0  0  0  0  0  0  0  0
    1.4949   -0.5028    0.0000 C   0  0  0  0  0  0  0  0  0  0  0  0
    2.3050   -0.3469    0.0000 C   0  0  0  0  0  0  0  0  0  0  0  0
    2.8451   -0.9705    0.0000 C   0  0  0  0  0  0  0  0  0  0  0  0
    2.5751   -1.7501    0.0000 N   0  0  0  0  0  0  0  0  0  0  0  0
    3.1152   -2.3737    0.0000 C   0  0  0  0  0  0  0  0  0  0  0  0
    2.8451   -3.1533    0.0000 C   0  0  0  0  0  0  0  0  0  0  0  0
    3.3171   -3.8300    0.0000 C   0  0  0  0  0  0  0  0  0  0  0  0
    2.8194   -4.4879    0.0000 C   0  0  0  0  0  0  0  0  0  0  0  0
    2.0398   -4.2179    0.0000 C   0  0  0  0  0  0  0  0  0  0  0  0
    2.0557   -3.3930    0.0000 O   0  0  0  0  0  0  0  0  0  0  0  0
    3.6553   -0.8146    0.0000 C   0  0  0  0  0  0  0  0  0  0  0  0
    3.9253   -0.0351    0.0000 O   0  0  0  0  0  0  0  0  0  0  0  0
    4.1954   -1.4383    0.0000 O   0  0  0  0  0  0  0  0  0  0  0  0
    5.0055   -1.2824    0.0000 C   0  0  0  0  0  0  0  0  0  0  0  0
    5.5456   -1.9060    0.0000 C   0  0  0  0  0  0  0  0  0  0  0  0
    6.3557   -1.7501    0.0000 O   0  0  0  0  0  0  0  0  0  0  0  0
    6.8958   -2.3737    0.0000 C   0  0  0  0  0  0  0  0  0  0  0  0
    7.7059   -2.2178    0.0000 C   0  0  0  0  0  0  0  0  0  0  0  0
    8.2460   -2.8415    0.0000 C   0  0  0  0  0  0  0  0  0  0  0  0
    7.9760   -3.6210    0.0000 C   0  0  0  0  0  0  0  0  0  0  0  0
    7.1658   -3.7769    0.0000 C   0  0  0  0  0  0  0  0  0  0  0  0
    6.6258   -3.1533    0.0000 C   0  0  0  0  0  0  0  0  0  0  0  0
    0.9548    0.1208    0.0000 N   0  0  0  0  0  0  0  0  0  0  0  0
    0.1319    0.1799    0.0000 C   0  0  0  0  0  0  0  0  0  0  0  0
    0.1910    1.0028    0.0000 C   0  0  0  0  0  0  0  0  0  0  0  0
    1.0139    0.9437    0.0000 C   0  0  0  0  0  0  0  0  0  0  0  0
   -0.6191    0.8469    0.0000 C   0  0  0  0  0  0  0  0  0  0  0  0
   -1.1592    1.4705    0.0000 C   0  0  0  0  0  0  0  0  0  0  0  0
   -0.8892    2.2501    0.0000 C   0  0  0  0  0  0  0  0  0  0  0  0
   -0.0790    2.4060    0.0000 C   0  0  0  0  0  0  0  0  0  0  0  0
    0.4611    1.7823    0.0000 O   0  0  0  0  0  0  0  0  0  0  0  0
  1  2  2  0  0  0  0
  2  3  1  0  0  0  0
  3  4  1  0  0  0  0
  4  5  1  0  0  0  0
  5  6  1  0  0  0  0
  6  7  1  0  0  0  0
  7  8  2  0  0  0  0
  8  9  1  0  0  0  0
  9 10  2  0  0  0  0
 10 11  1  0  0  0  0
  7 11  1  0  0  0  0
  4 12  1  0  0  0  0
 12 13  2  0  0  0  0
 12 14  1  0  0  0  0
 14 15  1  0  0  0  0
 15 16  1  0  0  0  0
 16 17  1  0  0  0  0
 17 18  1  0  0  0  0
 18 19  2  0  0  0  0
 19 20  1  0  0  0  0
 20 21  2  0  0  0  0
 21 22  1  0  0  0  0
 22 23  2  0  0  0  0
 18 23  1  0  0  0  0
  2 24  1  0  0  0  0
 24 25  1  0  0  0  0
 25 26  1  0  0  0  0
 26 27  1  0  0  0  0
 24 27  1  0  0  0  0
 26 28  1  0  0  0  0
 28 29  1  0  0  0  0
 29 30  1  0  0  0  0
 30 31  1  0  0  0  0
 31 32  1  0  0  0  0
 26 32  1  0  0  0  0
M  END
> <ID>
CPD_1215

$$$$
CPD_1220
  Mrv1822 09091914012D          

 33 36  0  0  0  0            999 V2000
   -0.7145    7.0125    0.0000 C   0  0  0  0  0  0  0  0  0  0  0  0
   -0.7145    6.1875    0.0000 O   0  0  0  0  0  0  0  0  0  0  0  0
    0.0000    5.7750    0.0000 C   0  0  0  0  0  0  0  0  0  0  0  0
    0.7145    6.1875    0.0000 O   0  0  0  0  0  0  0  0  0  0  0  0
    0.0000    4.9500    0.0000 C   0  0  0  0  0  0  0  0  0  0  0  0
    0.7145    4.5375    0.0000 C   0  0  0  0  0  0  0  0  0  0  0  0
    1.4289    4.9500    0.0000 F   0  0  0  0  0  0  0  0  0  0  0  0
    0.7145    3.7125    0.0000 C   0  0  0  0  0  0  0  0  0  0  0  0
    0.0000    3.3000    0.0000 C   0  0  0  0  0  0  0  0  0  0  0  0
   -0.7145    3.7125    0.0000 C   0  0  0  0  0  0  0  0  0  0  0  0
   -0.7145    4.5375    0.0000 C   0  0  0  0  0  0  0  0  0  0  0  0
    0.0000    2.4750    0.0000 C   0  0  0  0  0  0  0  0  0  0  0  0
    0.7145    2.0625    0.0000 C   0  0  0  0  0  0  0  0  0  0  0  0
    0.7145    1.2375    0.0000 C   0  0  0  0  0  0  0  0  0  0  0  0
    0.0000    0.8250    0.0000 C   0  0  0  0  0  0  0  0  0  0  0  0
    0.0000   -0.0000    0.0000 N   0  0  0  0  0  0  0  0  0  0  0  0
    0.7145   -0.4125    0.0000 C   0  0  0  0  0  0  0  0  0  0  0  0
    1.4289   -0.0000    0.0000 O   0  0  0  0  0  0  0  0  0  0  0  0
    0.7145   -1.2375    0.0000 C   0  0  0  0  0  0  0  0  0  0  0  0
    1.3819   -1.7224    0.0000 C   0  0  0  0  0  0  0  0  0  0  0  0
    1.1270   -2.5070    0.0000 N   0  0  0  0  0  0  0  0  0  0  0  0
    0.3020   -2.5070    0.0000 C   0  0  0  0  0  0  0  0  0  0  0  0
   -0.1830   -3.1745    0.0000 O   0  0  0  0  0  0  0  0  0  0  0  0
    0.0470   -1.7224    0.0000 C   0  0  0  0  0  0  0  0  0  0  0  0
    1.6119   -3.1745    0.0000 C   0  0  0  0  0  0  0  0  0  0  0  0
    2.4324   -3.0882    0.0000 C   0  0  0  0  0  0  0  0  0  0  0  0
    2.9173   -3.7557    0.0000 C   0  0  0  0  0  0  0  0  0  0  0  0
    2.5817   -4.5094    0.0000 C   0  0  0  0  0  0  0  0  0  0  0  0
    1.7613   -4.5956    0.0000 C   0  0  0  0  0  0  0  0  0  0  0  0
    1.2763   -3.9282    0.0000 C   0  0  0  0  0  0  0  0  0  0  0  0
    0.4559   -4.0144    0.0000 O   0  0  0  0  0  0  0  0  0  0  0  0
   -0.7145    1.2375    0.0000 C   0  0  0  0  0  0  0  0  0  0  0  0
   -0.7145    2.0625    0.0000 C   0  0  0  0  0  0  0  0  0  0  0  0
  1  2  1  0  0  0  0
  2  3  1  0  0  0  0
  3  4  2  0  0  0  0
  3  5  1  0  0  0  0
  5  6  2  0  0  0  0
  6  7  1  0  0  0  0
  6  8  1  0  0  0  0
  8  9  2  0  0  0  0
  9 10  1  0  0  0  0
 10 11  2  0  0  0  0
  5 11  1  0  0  0  0
  9 12  1  0  0  0  0
 12 13  2  0  0  0  0
 13 14  1  0  0  0  0
 14 15  2  0  0  0  0
 15 16  1  0  0  0  0
 16 17  1  0  0  0  0
 17 18  2  0  0  0  0
 17 19  1  0  0  0  0
 19 20  1  0  0  0  0
 20 21  1  0  0  0  0
 21 22  1  0  0  0  0
 22 23  2  0  0  0  0
 22 24  1  0  0  0  0
 19 24  1  0  0  0  0
 21 25  1  0  0  0  0
 25 26  2  0  0  0  0
 26 27  1  0  0  0  0
 27 28  2  0  0  0  0
 28 29  1  0  0  0  0
 29 30  2  0  0  0  0
 25 30  1  0  0  0  0
 30 31  1  0  0  0  0
 15 32  1  0  0  0  0
 32 33  2  0  0  0  0
 12 33  1  0  0  0  0
M  END
> <ID>
CPD_1220

$$$$
CPD_1225
  Mrv1822 09091914012D          

 29 32  0  0  0  0            999 V2000
   -8.8784   -2.1269    0.0000 C   0  0  0  0  0  0  0  0  0  0  0  0
   -8.0534   -2.1269    0.0000 O   0  0  0  0  0  0  0  0  0  0  0  0
   -7.6409   -1.4124    0.0000 C   0  0  0  0  0  0  0  0  0  0  0  0
   -8.0534   -0.6979    0.0000 O   0  0  0  0  0  0  0  0  0  0  0  0
   -6.8159   -1.4124    0.0000 C   0  0  0  0  0  0  0  0  0  0  0  0
   -6.4034   -0.6979    0.0000 C   0  0  0  0  0  0  0  0  0  0  0  0
   -6.8159    0.0165    0.0000 F   0  0  0  0  0  0  0  0  0  0  0  0
   -5.5784   -0.6979    0.0000 C   0  0  0  0  0  0  0  0  0  0  0  0
   -5.1659   -1.4124    0.0000 C   0  0  0  0  0  0  0  0  0  0  0  0
   -5.5784   -2.1269    0.0000 C   0  0  0  0  0  0  0  0  0  0  0  0
   -6.4034   -2.1269    0.0000 C   0  0  0  0  0  0  0  0  0  0  0  0
   -4.3409   -1.4124    0.0000 C   0  0  0  0  0  0  0  0  0  0  0  0
   -3.9284   -0.6979    0.0000 C   0  0  0  0  0  0  0  0  0  0  0  0
   -3.1034   -0.6979    0.0000 C   0  0  0  0  0  0  0  0  0  0  0  0
   -2.6909   -1.4124    0.0000 C   0  0  0  0  0  0  0  0  0  0  0  0
   -1.8659   -1.4124    0.0000 N   0  0  0  0  0  0  0  0  0  0  0  0
   -1.4534   -0.6979    0.0000 C   0  0  0  0  0  0  0  0  0  0  0  0
   -1.8659    0.0165    0.0000 O   0  0  0  0  0  0  0  0  0  0  0  0
   -0.6284   -0.6979    0.0000 C   0  0  0  0  0  0  0  0  0  0  0  0
   -0.1435   -1.3654    0.0000 C   0  0  0  0  0  0  0  0  0  0  0  0
    0.6411   -1.1104    0.0000 C   0  0  0  0  0  0  0  0  0  0  0  0
    0.6411   -0.2854    0.0000 C   0  0  0  0  0  0  0  0  0  0  0  0
    1.3556    0.1271    0.0000 C   0  0  0  0  0  0  0  0  0  0  0  0
    2.0701   -0.2854    0.0000 C   0  0  0  0  0  0  0  0  0  0  0  0
    2.0701   -1.1104    0.0000 N   0  0  0  0  0  0  0  0  0  0  0  0
    1.3556   -1.5229    0.0000 C   0  0  0  0  0  0  0  0  0  0  0  0
   -0.1435   -0.0305    0.0000 S   0  0  0  0  0  0  0  0  0  0  0  0
   -3.1034   -2.1269    0.0000 C   0  0  0  0  0  0  0  0  0  0  0  0
   -3.9284   -2.1269    0.0000 C   0  0  0  0  0  0  0  0  0  0  0  0
  1  2  1  0  0  0  0
  2  3  1  0  0  0  0
  3  4  2  0  0  0  0
  3  5  1  0  0  0  0
  5  6  2  0  0  0  0
  6  7  1  0  0  0  0
  6  8  1  0  0  0  0
  8  9  2  0  0  0  0
  9 10  1  0  0  0  0
 10 11  2  0  0  0  0
  5 11  1  0  0  0  0
  9 12  1  0  0  0  0
 12 13  2  0  0  0  0
 13 14  1  0  0  0  0
 14 15  2  0  0  0  0
 15 16  1  0  0  0  0
 16 17  1  0  0  0  0
 17 18  2  0  0  0  0
 17 19  1  0  0  0  0
 19 20  2  0  0  0  0
 20 21  1  0  0  0  0
 21 22  2  0  0  0  0
 22 23  1  0  0  0  0
 23 24  1  0  0  0  0
 24 25  1  0  0  0  0
 25 26  1  0  0  0  0
 21 26  1  0  0  0  0
 22 27  1  0  0  0  0
 19 27  1  0  0  0  0
 15 28  1  0  0  0  0
 28 29  2  0  0  0  0
 12 29  1  0  0  0  0
M  END
> <ID>
CPD_1225

$$$$
CPD_1230
  Mrv1822 09091914012D          

 28 30  0  0  0  0            999 V2000
    3.5724   -3.7125    0.0000 C   0  0  0  0  0  0  0  0  0  0  0  0
    2.8579   -4.1250    0.0000 O   0  0  0  0  0  0  0  0  0  0  0  0
    2.8579   -4.9500    0.0000 C   0  0  0  0  0  0  0  0  0  0  0  0
    3.5724   -5.3625    0.0000 C   0  0  0  0  0  0  0  0  0  0  0  0
    3.5724   -6.1875    0.0000 C   0  0  0  0  0  0  0  0  0  0  0  0
    2.8579   -6.6000    0.0000 C   0  0  0  0  0  0  0  0  0  0  0  0
    2.8579   -7.4250    0.0000 F   0  0  0  0  0  0  0  0  0  0  0  0
    2.1434   -6.1875    0.0000 C   0  0  0  0  0  0  0  0  0  0  0  0
    1.4289   -6.6000    0.0000 F   0  0  0  0  0  0  0  0  0  0  0  0
    2.1434   -5.3625    0.0000 C   0  0  0  0  0  0  0  0  0  0  0  0
    1.4289   -4.9500    0.0000 C   0  0  0  0  0  0  0  0  0  0  0  0
    0.7145   -5.3625    0.0000 O   0  0  0  0  0  0  0  0  0  0  0  0
    1.4289   -4.1250    0.0000 N   0  0  0  0  0  0  0  0  0  0  0  0
    0.7145   -3.7125    0.0000 C   0  0  0  0  0  0  0  0  0  0  0  0
    0.7145   -2.8875    0.0000 C   0  0  0  0  0  0  0  0  0  0  0  0
    1.4289   -2.4750    0.0000 C   0  0  0  0  0  0  0  0  0  0  0  0
    2.1434   -2.8875    0.0000 C   0  0  0  0  0  0  0  0  0  0  0  0
    2.1434   -3.7125    0.0000 C   0  0  0  0  0  0  0  0  0  0  0  0
    1.4289   -1.6500    0.0000 O   0  0  0  0  0  0  0  0  0  0  0  0
    0.7145   -1.2375    0.0000 C   0  0  0  0  0  0  0  0  0  0  0  0
    0.7145   -0.4125    0.0000 C   0  0  0  0  0  0  0  0  0  0  0  0
    0.0000    0.0000    0.0000 C   0  0  0  0  0  0  0  0  0  0  0  0
   -0.7145   -0.4125    0.0000 F   0  0  0  0  0  0  0  0  0  0  0  0
    0.0000    0.8250    0.0000 C   0  0  0  0  0  0  0  0  0  0  0  0
    0.7145    1.2375    0.0000 C   0  0  0  0  0  0  0  0  0  0  0  0
    0.7145    2.0625    0.0000 F   0  0  0  0  0  0  0  0  0  0  0  0
    1.4289    0.8250    0.0000 C   0  0  0  0  0  0  0  0  0  0  0  0
    1.4289    0.0000    0.0000 C   0  0  0  0  0  0  0  0  0  0  0  0
  1  2  1  0  0  0  0
  2  3  1  0  0  0  0
  3  4  2  0  0  0  0
  4  5  1  0  0  0  0
  5  6  2  0  0  0  0
  6  7  1  0  0  0  0
  6  8  1  0  0  0  0
  8  9  1  0  0  0  0
  8 10  2  0  0  0  0
  3 10  1  0  0  0  0
 10 11  1  0  0  0  0
 11 12  2  0  0  0  0
 11 13  1  0  0  0  0
 13 14  1  0  0  0  0
 14 15  1  0  0  0  0
 15 16  1  0  0  0  0
 16 17  1  0  0  0  0
 17 18  1  0  0  0  0
 13 18  1  0  0  0  0
 16 19  1  0  0  0  0
 19 20  1  0  0  0  0
 20 21  1  0  0  0  0
 21 22  2  0  0  0  0
 22 23  1  0  0  0  0
 22 24  1  0  0  0  0
 24 25  2  0  0  0  0
 25 26  1  0  0  0  0
 25 27  1  0  0  0  0
 27 28  2  0  0  0  0
 21 28  1  0  0  0  0
M  END
> <ID>
CPD_1230

$$$$
CPD_1235
  Mrv1822 09091914012D          

 24 26  0  0  0  0            999 V2000
    2.7512   -4.1866    0.0000 N   0  0  0  0  0  0  0  0  0  0  0  0
    2.7512   -5.0116    0.0000 C   0  0  0  0  0  0  0  0  0  0  0  0
    3.4186   -5.4965    0.0000 N   0  0  0  0  0  0  0  0  0  0  0  0
    3.1637   -6.2812    0.0000 C   0  0  0  0  0  0  0  0  0  0  0  0
    2.3387   -6.2812    0.0000 C   0  0  0  0  0  0  0  0  0  0  0  0
    2.0837   -5.4965    0.0000 S   0  0  0  0  0  0  0  0  0  0  0  0
    1.8538   -6.9486    0.0000 C   0  0  0  0  0  0  0  0  0  0  0  0
    2.1893   -7.7023    0.0000 O   0  0  0  0  0  0  0  0  0  0  0  0
    1.0333   -6.8624    0.0000 N   0  0  0  0  0  0  0  0  0  0  0  0
    0.5484   -7.5298    0.0000 C   0  0  0  0  0  0  0  0  0  0  0  0
   -0.2721   -7.4436    0.0000 C   0  0  0  0  0  0  0  0  0  0  0  0
   -0.6077   -6.6899    0.0000 C   0  0  0  0  0  0  0  0  0  0  0  0
   -0.1228   -6.0224    0.0000 C   0  0  0  0  0  0  0  0  0  0  0  0
    0.6977   -6.1087    0.0000 C   0  0  0  0  0  0  0  0  0  0  0  0
   -1.4282   -6.6036    0.0000 O   0  0  0  0  0  0  0  0  0  0  0  0
   -1.9131   -7.2711    0.0000 C   0  0  0  0  0  0  0  0  0  0  0  0
   -2.7336   -7.1848    0.0000 C   0  0  0  0  0  0  0  0  0  0  0  0
   -3.2185   -7.8523    0.0000 C   0  0  0  0  0  0  0  0  0  0  0  0
   -2.8829   -8.6060    0.0000 F   0  0  0  0  0  0  0  0  0  0  0  0
   -4.0390   -7.7661    0.0000 C   0  0  0  0  0  0  0  0  0  0  0  0
   -4.3745   -7.0124    0.0000 C   0  0  0  0  0  0  0  0  0  0  0  0
   -5.1950   -6.9261    0.0000 F   0  0  0  0  0  0  0  0  0  0  0  0
   -3.8896   -6.3449    0.0000 C   0  0  0  0  0  0  0  0  0  0  0  0
   -3.0691   -6.4312    0.0000 C   0  0  0  0  0  0  0  0  0  0  0  0
  1  2  1  0  0  0  0
  2  3  2  0  0  0  0
  3  4  1  0  0  0  0
  4  5  2  0  0  0  0
  5  6  1  0  0  0  0
  2  6  1  0  0  0  0
  5  7  1  0  0  0  0
  7  8  2  0  0  0  0
  7  9  1  0  0  0  0
  9 10  1  0  0  0  0
 10 11  1  0  0  0  0
 11 12  1  0  0  0  0
 12 13  1  0  0  0  0
 13 14  1  0  0  0  0
  9 14  1  0  0  0  0
 12 15  1  0  0  0  0
 15 16  1  0  0  0  0
 16 17  1  0  0  0  0
 17 18  2  0  0  0  0
 18 19  1  0  0  0  0
 18 20  1  0  0  0  0
 20 21  2  0  0  0  0
 21 22  1  0  0  0  0
 21 23  1  0  0  0  0
 23 24  2  0  0  0  0
 17 24  1  0  0  0  0
M  END
> <ID>
CPD_1235

$$$$
CPD_1240
  Mrv1822 09091914012D          

 21 23  0  0  0  0            999 V2000
    4.1738   -2.2270    0.0000 F   0  0  0  0  0  0  0  0  0  0  0  0
    3.5905   -2.8103    0.0000 C   0  0  0  0  0  0  0  0  0  0  0  0
    3.0071   -2.2270    0.0000 F   0  0  0  0  0  0  0  0  0  0  0  0
    4.1738   -3.3937    0.0000 C   0  0  0  0  0  0  0  0  0  0  0  0
    3.5905   -3.9771    0.0000 C   0  0  0  0  0  0  0  0  0  0  0  0
    3.5905   -4.8021    0.0000 C   0  0  0  0  0  0  0  0  0  0  0  0
    2.8760   -5.2146    0.0000 C   0  0  0  0  0  0  0  0  0  0  0  0
    2.8760   -6.0396    0.0000 O   0  0  0  0  0  0  0  0  0  0  0  0
    2.1615   -4.8021    0.0000 N   0  0  0  0  0  0  0  0  0  0  0  0
    2.0753   -3.9816    0.0000 C   0  0  0  0  0  0  0  0  0  0  0  0
    1.2683   -3.8101    0.0000 C   0  0  0  0  0  0  0  0  0  0  0  0
    0.8558   -4.5245    0.0000 C   0  0  0  0  0  0  0  0  0  0  0  0
    1.4078   -5.1376    0.0000 C   0  0  0  0  0  0  0  0  0  0  0  0
    1.2363   -5.9446    0.0000 C   0  0  0  0  0  0  0  0  0  0  0  0
    1.8494   -6.4966    0.0000 O   0  0  0  0  0  0  0  0  0  0  0  0
    0.4517   -6.1995    0.0000 N   0  0  0  0  0  0  0  0  0  0  0  0
    0.1967   -6.9842    0.0000 C   0  0  0  0  0  0  0  0  0  0  0  0
   -0.6283   -6.9842    0.0000 C   0  0  0  0  0  0  0  0  0  0  0  0
   -0.8832   -6.1995    0.0000 C   0  0  0  0  0  0  0  0  0  0  0  0
   -0.2158   -5.7146    0.0000 C   0  0  0  0  0  0  0  0  0  0  0  0
    3.0071   -3.3937    0.0000 C   0  0  0  0  0  0  0  0  0  0  0  0
  1  2  1  0  0  0  0
  2  3  1  0  0  0  0
  2  4  1  0  0  0  0
  4  5  1  0  0  0  0
  5  6  1  0  0  0  0
  6  7  1  0  0  0  0
  7  8  2  0  0  0  0
  7  9  1  0  0  0  0
  9 10  1  0  0  0  0
 10 11  1  0  0  0  0
 11 12  1  0  0  0  0
 12 13  1  0  0  0  0
  9 13  1  0  0  0  0
 13 14  1  0  0  0  0
 14 15  2  0  0  0  0
 14 16  1  0  0  0  0
 16 17  1  0  0  0  0
 17 18  1  0  0  0  0
 18 19  1  0  0  0  0
 19 20  1  0  0  0  0
 16 20  1  0  0  0  0
  5 21  1  0  0  0  0
  2 21  1  0  0  0  0
M  END
> <ID>
CPD_1240

$$$$
CPD_1245
  Mrv1822 09091914012D          

 38 41  0  0  1  0            999 V2000
   -2.8579   -0.0000    0.0000 C   0  0  0  0  0  0  0  0  0  0  0  0
   -2.1434    0.4125    0.0000 O   0  0  0  0  0  0  0  0  0  0  0  0
   -1.4289   -0.0000    0.0000 C   0  0  0  0  0  0  0  0  0  0  0  0
   -0.7145    0.4125    0.0000 C   0  0  0  0  0  0  0  0  0  0  0  0
    0.0000   -0.0000    0.0000 C   0  0  0  0  0  0  0  0  0  0  0  0
    0.0000   -0.8250    0.0000 C   0  0  0  0  0  0  0  0  0  0  0  0
   -0.7145   -1.2375    0.0000 C   0  0  0  0  0  0  0  0  0  0  0  0
   -1.4289   -0.8250    0.0000 C   0  0  0  0  0  0  0  0  0  0  0  0
    0.7145   -1.2375    0.0000 C   0  0  0  0  0  0  0  0  0  0  0  0
    1.4289   -0.8250    0.0000 N   0  0  0  0  0  0  0  0  0  0  0  0
    2.1434   -1.2375    0.0000 C   0  0  0  0  0  0  0  0  0  0  0  0
    2.1434   -2.0625    0.0000 O   0  0  0  0  0  0  0  0  0  0  0  0
    2.8579   -0.8250    0.0000 C   0  0  0  0  0  0  0  0  0  0  0  0
    3.5724   -1.2375    0.0000 C   0  0  0  0  0  0  0  0  0  0  0  0
    4.2868   -0.8250    0.0000 C   0  0  2  0  0  0  0  0  0  0  0  0
    4.2868    0.0000    0.0000 N   0  0  0  0  0  0  0  0  0  0  0  0
    5.0013   -1.2375    0.0000 C   0  0  0  0  0  0  0  0  0  0  0  0
    5.0013   -2.0625    0.0000 O   0  0  0  0  0  0  0  0  0  0  0  0
    5.7158   -0.8250    0.0000 N   0  0  0  0  0  0  0  0  0  0  0  0
    5.8020   -0.0045    0.0000 C   0  0  0  0  0  0  0  0  0  0  0  0
    6.6090    0.1670    0.0000 C   0  0  0  0  0  0  0  0  0  0  0  0
    7.0215   -0.5475    0.0000 C   0  0  0  0  0  0  0  0  0  0  0  0
    6.4694   -1.1606    0.0000 C   0  0  0  0  0  0  0  0  0  0  0  0
    6.6410   -1.9675    0.0000 C   0  0  0  0  0  0  0  0  0  0  0  0
    6.0279   -2.5196    0.0000 O   0  0  0  0  0  0  0  0  0  0  0  0
    7.4256   -2.2225    0.0000 N   0  0  0  0  0  0  0  0  0  0  0  0
    8.0930   -1.7375    0.0000 C   0  0  0  0  0  0  0  0  0  0  0  0
    8.7605   -2.2225    0.0000 C   0  0  0  0  0  0  0  0  0  0  0  0
    8.5055   -3.0071    0.0000 C   0  0  0  0  0  0  0  0  0  0  0  0
    7.6805   -3.0071    0.0000 C   0  0  0  0  0  0  0  0  0  0  0  0
    0.7145   -2.0625    0.0000 C   0  0  0  0  0  0  0  0  0  0  0  0
    1.4289   -2.4750    0.0000 C   0  0  0  0  0  0  0  0  0  0  0  0
    1.4289   -3.3000    0.0000 C   0  0  0  0  0  0  0  0  0  0  0  0
    0.7145   -3.7125    0.0000 C   0  0  0  0  0  0  0  0  0  0  0  0
    0.7145   -4.5375    0.0000 O   0  0  0  0  0  0  0  0  0  0  0  0
    0.0000   -4.9500    0.0000 C   0  0  0  0  0  0  0  0  0  0  0  0
    0.0000   -3.3000    0.0000 C   0  0  0  0  0  0  0  0  0  0  0  0
    0.0000   -2.4750    0.0000 C   0  0  0  0  0  0  0  0  0  0  0  0
  1  2  1  0  0  0  0
  2  3  1  0  0  0  0
  3  4  2  0  0  0  0
  4  5  1  0  0  0  0
  5  6  2  0  0  0  0
  6  7  1  0  0  0  0
  7  8  2  0  0  0  0
  3  8  1  0  0  0  0
  6  9  1  0  0  0  0
  9 10  1  0  0  0  0
 10 11  1  0  0  0  0
 11 12  2  0  0  0  0
 11 13  1  0  0  0  0
 13 14  1  0  0  0  0
 15 14  1  0  0  0  0
 15 16  1  6  0  0  0
 15 17  1  0  0  0  0
 17 18  2  0  0  0  0
 17 19  1  0  0  0  0
 19 20  1  0  0  0  0
 20 21  1  0  0  0  0
 21 22  1  0  0  0  0
 22 23  1  0  0  0  0
 19 23  1  0  0  0  0
 23 24  1  0  0  0  0
 24 25  2  0  0  0  0
 24 26  1  0  0  0  0
 26 27  1  0  0  0  0
 27 28  1  0  0  0  0
 28 29  1  0  0  0  0
 29 30  1  0  0  0  0
 26 30  1  0  0  0  0
  9 31  1  0  0  0  0
 31 32  2  0  0  0  0
 32 33  1  0  0  0  0
 33 34  2  0  0  0  0
 34 35  1  0  0  0  0
 35 36  1  0  0  0  0
 34 37  1  0  0  0  0
 37 38  2  0  0  0  0
 31 38  1  0  0  0  0
M  END
> <ID>
CPD_1245

$$$$
CPD_1250
  Mrv1822 09091914012D          

 21 23  0  0  0  0            999 V2000
   -1.3222   -0.0616    0.0000 O   0  0  0  0  0  0  0  0  0  0  0  0
   -0.6078   -0.4741    0.0000 C   0  0  0  0  0  0  0  0  0  0  0  0
   -0.6078   -1.2991    0.0000 C   0  0  0  0  0  0  0  0  0  0  0  0
    0.0597   -1.7840    0.0000 C   0  0  0  0  0  0  0  0  0  0  0  0
   -0.1953   -2.5687    0.0000 C   0  0  0  0  0  0  0  0  0  0  0  0
   -1.0203   -2.5687    0.0000 C   0  0  0  0  0  0  0  0  0  0  0  0
   -1.2752   -1.7840    0.0000 N   0  0  0  0  0  0  0  0  0  0  0  0
   -2.0598   -1.5291    0.0000 C   0  0  0  0  0  0  0  0  0  0  0  0
   -2.2314   -0.7221    0.0000 O   0  0  0  0  0  0  0  0  0  0  0  0
   -2.6729   -2.0811    0.0000 C   0  0  0  0  0  0  0  0  0  0  0  0
   -2.5014   -2.8881    0.0000 C   0  0  0  0  0  0  0  0  0  0  0  0
   -3.1145   -3.4401    0.0000 O   0  0  0  0  0  0  0  0  0  0  0  0
   -3.8991   -3.1852    0.0000 C   0  0  0  0  0  0  0  0  0  0  0  0
   -4.0706   -2.3782    0.0000 C   0  0  0  0  0  0  0  0  0  0  0  0
   -3.4575   -1.8262    0.0000 C   0  0  0  0  0  0  0  0  0  0  0  0
   -3.6291   -1.0192    0.0000 O   0  0  0  0  0  0  0  0  0  0  0  0
    0.1067   -0.0616    0.0000 N   0  0  0  0  0  0  0  0  0  0  0  0
    0.1929    0.7589    0.0000 C   0  0  0  0  0  0  0  0  0  0  0  0
    0.9999    0.9304    0.0000 C   0  0  0  0  0  0  0  0  0  0  0  0
    1.4124    0.2159    0.0000 C   0  0  0  0  0  0  0  0  0  0  0  0
    0.8604   -0.3972    0.0000 C   0  0  0  0  0  0  0  0  0  0  0  0
  1  2  2  0  0  0  0
  2  3  1  0  0  0  0
  3  4  1  0  0  0  0
  4  5  1  0  0  0  0
  5  6  1  0  0  0  0
  6  7  1  0  0  0  0
  3  7  1  0  0  0  0
  7  8  1  0  0  0  0
  8  9  2  0  0  0  0
  8 10  1  0  0  0  0
 10 11  1  0  0  0  0
 11 12  1  0  0  0  0
 12 13  1  0  0  0  0
 13 14  1  0  0  0  0
 14 15  1  0  0  0  0
 10 15  1  0  0  0  0
 15 16  2  0  0  0  0
  2 17  1  0  0  0  0
 17 18  1  0  0  0  0
 18 19  1  0  0  0  0
 19 20  1  0  0  0  0
 20 21  1  0  0  0  0
 17 21  1  0  0  0  0
M  END
> <ID>
CPD_1250

$$$$
CPD_1255
  Mrv1822 09091914012D          

 34 36  0  0  0  0            999 V2000
   -1.4289    0.0000    0.0000 C   0  0  0  0  0  0  0  0  0  0  0  0
   -2.1434   -0.4125    0.0000 C   0  0  0  0  0  0  0  0  0  0  0  0
   -2.1434   -1.2375    0.0000 O   0  0  0  0  0  0  0  0  0  0  0  0
   -2.8579   -1.6500    0.0000 C   0  0  0  0  0  0  0  0  0  0  0  0
   -3.5724   -1.2375    0.0000 C   0  0  0  0  0  0  0  0  0  0  0  0
   -4.2868   -1.6500    0.0000 C   0  0  0  0  0  0  0  0  0  0  0  0
   -4.2868   -2.4750    0.0000 C   0  0  0  0  0  0  0  0  0  0  0  0
   -5.0013   -2.8875    0.0000 N   0  0  0  0  0  0  0  0  0  0  0  0
   -5.7158   -2.4750    0.0000 C   0  0  0  0  0  0  0  0  0  0  0  0
   -6.4302   -2.8875    0.0000 O   0  0  0  0  0  0  0  0  0  0  0  0
   -5.7158   -1.6500    0.0000 C   0  0  0  0  0  0  0  0  0  0  0  0
   -5.0013   -1.2375    0.0000 C   0  0  0  0  0  0  0  0  0  0  0  0
   -3.5724   -2.8875    0.0000 C   0  0  0  0  0  0  0  0  0  0  0  0
   -2.8579   -2.4750    0.0000 C   0  0  0  0  0  0  0  0  0  0  0  0
   -2.1434   -2.8875    0.0000 O   0  0  0  0  0  0  0  0  0  0  0  0
   -1.4289   -2.4750    0.0000 C   0  0  0  0  0  0  0  0  0  0  0  0
   -0.7145   -2.8875    0.0000 C   0  0  0  0  0  0  0  0  0  0  0  0
   -0.7145   -3.7125    0.0000 O   0  0  0  0  0  0  0  0  0  0  0  0
    0.0000   -2.4750    0.0000 N   0  0  0  0  0  0  0  0  0  0  0  0
    0.7145   -2.8875    0.0000 C   0  0  0  0  0  0  0  0  0  0  0  0
    1.4289   -2.4750    0.0000 C   0  0  0  0  0  0  0  0  0  0  0  0
    2.1434   -2.8875    0.0000 C   0  0  0  0  0  0  0  0  0  0  0  0
    2.1434   -3.7125    0.0000 C   0  0  0  0  0  0  0  0  0  0  0  0
    1.4289   -4.1250    0.0000 C   0  0  0  0  0  0  0  0  0  0  0  0
    0.7145   -3.7125    0.0000 C   0  0  0  0  0  0  0  0  0  0  0  0
    2.8579   -2.4750    0.0000 N   0  0  0  0  0  0  0  0  0  0  0  0
    3.5724   -2.8875    0.0000 C   0  0  0  0  0  0  0  0  0  0  0  0
    2.8579   -1.6500    0.0000 C   0  0  0  0  0  0  0  0  0  0  0  0
    2.1434   -1.2375    0.0000 O   0  0  0  0  0  0  0  0  0  0  0  0
    3.5724   -1.2375    0.0000 O   0  0  0  0  0  0  0  0  0  0  0  0
    3.5724   -0.4125    0.0000 C   0  0  0  0  0  0  0  0  0  0  0  0
    3.5724    0.4125    0.0000 C   0  0  0  0  0  0  0  0  0  0  0  0
    4.3974   -0.4125    0.0000 C   0  0  0  0  0  0  0  0  0  0  0  0
    2.7474   -0.4125    0.0000 C   0  0  0  0  0  0  0  0  0  0  0  0
  1  2  1  0  0  0  0
  2  3  1  0  0  0  0
  3  4  1  0  0  0  0
  4  5  2  0  0  0  0
  5  6  1  0  0  0  0
  6  7  2  0  0  0  0
  7  8  1  0  0  0  0
  8  9  1  0  0  0  0
  9 10  2  0  0  0  0
  9 11  1  0  0  0  0
 11 12  1  0  0  0  0
  6 12  1  0  0  0  0
  7 13  1  0  0  0  0
 13 14  2  0  0  0  0
  4 14  1  0  0  0  0
 14 15  1  0  0  0  0
 15 16  1  0  0  0  0
 16 17  1  0  0  0  0
 17 18  2  0  0  0  0
 17 19  1  0  0  0  0
 19 20  1  0  0  0  0
 20 21  2  0  0  0  0
 21 22  1  0  0  0  0
 22 23  2  0  0  0  0
 23 24  1  0  0  0  0
 24 25  2  0  0  0  0
 20 25  1  0  0  0  0
 22 26  1  0  0  0  0
 26 27  1  0  0  0  0
 26 28  1  0  0  0  0
 28 29  2  0  0  0  0
 28 30  1  0  0  0  0
 30 31  1  0  0  0  0
 31 32  1  0  0  0  0
 31 33  1  0  0  0  0
 31 34  1  0  0  0  0
M  END
> <ID>
CPD_1255

$$$$
CPD_1260
  Mrv1822 09091914012D          

 34 37  0  0  0  0            999 V2000
    2.1434    4.5375    0.0000 C   0  0  0  0  0  0  0  0  0  0  0  0
    2.1434    3.7125    0.0000 N   0  0  0  0  0  0  0  0  0  0  0  0
    2.8579    3.3000    0.0000 C   0  0  0  0  0  0  0  0  0  0  0  0
    2.8579    2.4750    0.0000 O   0  0  0  0  0  0  0  0  0  0  0  0
    3.5724    3.7125    0.0000 O   0  0  0  0  0  0  0  0  0  0  0  0
    4.2868    3.3000    0.0000 C   0  0  0  0  0  0  0  0  0  0  0  0
    5.0013    2.8875    0.0000 C   0  0  0  0  0  0  0  0  0  0  0  0
    4.6993    4.0145    0.0000 C   0  0  0  0  0  0  0  0  0  0  0  0
    3.8743    2.5855    0.0000 C   0  0  0  0  0  0  0  0  0  0  0  0
    1.4289    3.3000    0.0000 C   0  0  0  0  0  0  0  0  0  0  0  0
    0.7145    3.7125    0.0000 C   0  0  0  0  0  0  0  0  0  0  0  0
    0.0000    3.3000    0.0000 C   0  0  0  0  0  0  0  0  0  0  0  0
    0.0000    2.4750    0.0000 C   0  0  0  0  0  0  0  0  0  0  0  0
    0.7145    2.0625    0.0000 C   0  0  0  0  0  0  0  0  0  0  0  0
    0.7145    1.2375    0.0000 N   0  0  0  0  0  0  0  0  0  0  0  0
    0.0000    0.8250    0.0000 C   0  0  0  0  0  0  0  0  0  0  0  0
   -0.7145    1.2375    0.0000 O   0  0  0  0  0  0  0  0  0  0  0  0
    0.0000   -0.0000    0.0000 C   0  0  0  0  0  0  0  0  0  0  0  0
   -0.7145   -0.4125    0.0000 C   0  0  0  0  0  0  0  0  0  0  0  0
   -0.7145   -1.2375    0.0000 C   0  0  0  0  0  0  0  0  0  0  0  0
    0.0000   -1.6500    0.0000 N   0  0  0  0  0  0  0  0  0  0  0  0
    0.7145   -1.2375    0.0000 C   0  0  0  0  0  0  0  0  0  0  0  0
    0.7145   -0.4125    0.0000 C   0  0  0  0  0  0  0  0  0  0  0  0
    1.4289   -0.0000    0.0000 C   0  0  0  0  0  0  0  0  0  0  0  0
    2.1434   -0.4125    0.0000 C   0  0  0  0  0  0  0  0  0  0  0  0
    2.1434   -1.2375    0.0000 C   0  0  0  0  0  0  0  0  0  0  0  0
    1.4289   -1.6500    0.0000 C   0  0  0  0  0  0  0  0  0  0  0  0
   -1.4289   -1.6500    0.0000 C   0  0  0  0  0  0  0  0  0  0  0  0
   -1.4289   -2.4750    0.0000 C   0  0  0  0  0  0  0  0  0  0  0  0
   -2.1434   -2.8875    0.0000 C   0  0  0  0  0  0  0  0  0  0  0  0
   -2.8579   -2.4750    0.0000 N   0  0  0  0  0  0  0  0  0  0  0  0
   -2.8579   -1.6500    0.0000 C   0  0  0  0  0  0  0  0  0  0  0  0
   -2.1434   -1.2375    0.0000 C   0  0  0  0  0  0  0  0  0  0  0  0
    1.4289    2.4750    0.0000 C   0  0  0  0  0  0  0  0  0  0  0  0
  1  2  1  0  0  0  0
  2  3  1  0  0  0  0
  3  4  2  0  0  0  0
  3  5  1  0  0  0  0
  5  6  1  0  0  0  0
  6  7  1  0  0  0  0
  6  8  1  0  0  0  0
  6  9  1  0  0  0  0
  2 10  1  0  0  0  0
 10 11  2  0  0  0  0
 11 12  1  0  0  0  0
 12 13  2  0  0  0  0
 13 14  1  0  0  0  0
 14 15  1  0  0  0  0
 15 16  1  0  0  0  0
 16 17  2  0  0  0  0
 16 18  1  0  0  0  0
 18 19  2  0  0  0  0
 19 20  1  0  0  0  0
 20 21  2  0  0  0  0
 21 22  1  0  0  0  0
 22 23  2  0  0  0  0
 18 23  1  0  0  0  0
 23 24  1  0  0  0  0
 24 25  2  0  0  0  0
 25 26  1  0  0  0  0
 26 27  2  0  0  0  0
 22 27  1  0  0  0  0
 20 28  1  0  0  0  0
 28 29  2  0  0  0  0
 29 30  1  0  0  0  0
 30 31  2  0  0  0  0
 31 32  1  0  0  0  0
 32 33  2  0  0  0  0
 28 33  1  0  0  0  0
 14 34  2  0  0  0  0
 10 34  1  0  0  0  0
M  END
> <ID>
CPD_1260

$$$$
CPD_1265
  Mrv1822 09091914012D          

 27 28  0  0  1  0            999 V2000
   -1.4289    0.8250    0.0000 C   0  0  0  0  0  0  0  0  0  0  0  0
   -1.4289    1.6500    0.0000 N   0  0  0  0  0  0  0  0  0  0  0  0
   -2.1434    2.0625    0.0000 C   0  0  0  0  0  0  0  0  0  0  0  0
   -2.1434    2.8875    0.0000 O   0  0  0  0  0  0  0  0  0  0  0  0
   -2.8579    1.6500    0.0000 O   0  0  0  0  0  0  0  0  0  0  0  0
   -3.5724    2.0625    0.0000 C   0  0  0  0  0  0  0  0  0  0  0  0
   -4.2868    2.4750    0.0000 C   0  0  0  0  0  0  0  0  0  0  0  0
   -3.9849    1.3480    0.0000 C   0  0  0  0  0  0  0  0  0  0  0  0
   -3.1599    2.7770    0.0000 C   0  0  0  0  0  0  0  0  0  0  0  0
   -0.7145    2.0625    0.0000 C   0  0  0  0  0  0  0  0  0  0  0  0
   -0.7145    2.8875    0.0000 C   0  0  0  0  0  0  0  0  0  0  0  0
   -0.0000    3.3000    0.0000 C   0  0  0  0  0  0  0  0  0  0  0  0
    0.7145    2.8875    0.0000 C   0  0  0  0  0  0  0  0  0  0  0  0
    0.7145    2.0625    0.0000 C   0  0  0  0  0  0  0  0  0  0  0  0
    1.4289    1.6500    0.0000 N   0  0  0  0  0  0  0  0  0  0  0  0
    2.1434    2.0625    0.0000 C   0  0  0  0  0  0  0  0  0  0  0  0
    2.1434    2.8875    0.0000 O   0  0  0  0  0  0  0  0  0  0  0  0
    2.8579    1.6500    0.0000 C   0  0  1  0  0  0  0  0  0  0  0  0
    2.8579    0.8250    0.0000 N   0  0  0  0  0  0  0  0  0  0  0  0
    3.5724    2.0625    0.0000 C   0  0  0  0  0  0  0  0  0  0  0  0
    4.2868    1.6500    0.0000 C   0  0  0  0  0  0  0  0  0  0  0  0
    5.0405    1.9856    0.0000 C   0  0  0  0  0  0  0  0  0  0  0  0
    5.5925    1.3725    0.0000 N   0  0  0  0  0  0  0  0  0  0  0  0
    6.4130    1.4587    0.0000 C   0  0  0  0  0  0  0  0  0  0  0  0
    5.1800    0.6580    0.0000 C   0  0  0  0  0  0  0  0  0  0  0  0
    4.3731    0.8295    0.0000 N   0  0  0  0  0  0  0  0  0  0  0  0
   -0.0000    1.6500    0.0000 C   0  0  0  0  0  0  0  0  0  0  0  0
  1  2  1  0  0  0  0
  2  3  1  0  0  0  0
  3  4  2  0  0  0  0
  3  5  1  0  0  0  0
  5  6  1  0  0  0  0
  6  7  1  0  0  0  0
  6  8  1  0  0  0  0
  6  9  1  0  0  0  0
  2 10  1  0  0  0  0
 10 11  2  0  0  0  0
 11 12  1  0  0  0  0
 12 13  2  0  0  0  0
 13 14  1  0  0  0  0
 14 15  1  0  0  0  0
 15 16  1  0  0  0  0
 16 17  2  0  0  0  0
 18 16  1  0  0  0  0
 18 19  1  6  0  0  0
 18 20  1  0  0  0  0
 20 21  1  0  0  0  0
 21 22  2  0  0  0  0
 22 23  1  0  0  0  0
 23 24  1  0  0  0  0
 23 25  1  0  0  0  0
 25 26  2  0  0  0  0
 21 26  1  0  0  0  0
 14 27  2  0  0  0  0
 10 27  1  0  0  0  0
M  END
> <ID>
CPD_1265

$$$$
CPD_1270
  Mrv1822 09091914012D          

 27 29  0  0  0  0            999 V2000
   -3.3603   -5.0103    0.0000 C   0  0  0  0  0  0  0  0  0  0  0  0
   -2.5353   -5.0103    0.0000 C   0  0  0  0  0  0  0  0  0  0  0  0
   -2.1228   -4.2959    0.0000 O   0  0  0  0  0  0  0  0  0  0  0  0
   -1.2978   -4.2959    0.0000 C   0  0  0  0  0  0  0  0  0  0  0  0
   -0.7145   -3.7125    0.0000 C   0  0  0  0  0  0  0  0  0  0  0  0
   -0.7145   -2.8875    0.0000 N   0  0  0  0  0  0  0  0  0  0  0  0
   -1.4289   -2.4750    0.0000 C   0  0  0  0  0  0  0  0  0  0  0  0
   -2.1434   -2.8875    0.0000 C   0  0  0  0  0  0  0  0  0  0  0  0
   -2.8579   -2.4750    0.0000 O   0  0  0  0  0  0  0  0  0  0  0  0
    0.0000   -2.4750    0.0000 C   0  0  0  0  0  0  0  0  0  0  0  0
    0.7145   -2.8875    0.0000 O   0  0  0  0  0  0  0  0  0  0  0  0
    0.0000   -1.6500    0.0000 C   0  0  0  0  0  0  0  0  0  0  0  0
    0.7145   -1.2375    0.0000 C   0  0  0  0  0  0  0  0  0  0  0  0
    0.7145   -0.4125    0.0000 C   0  0  0  0  0  0  0  0  0  0  0  0
    0.0000   -0.0000    0.0000 C   0  0  0  0  0  0  0  0  0  0  0  0
   -0.7145   -0.4125    0.0000 O   0  0  0  0  0  0  0  0  0  0  0  0
   -0.7145   -1.2375    0.0000 C   0  0  0  0  0  0  0  0  0  0  0  0
   -1.4289   -1.6500    0.0000 O   0  0  0  0  0  0  0  0  0  0  0  0
    0.0000    0.8250    0.0000 C   0  0  0  0  0  0  0  0  0  0  0  0
    0.7145    1.2375    0.0000 C   0  0  0  0  0  0  0  0  0  0  0  0
    1.4289    0.8250    0.0000 C   0  0  0  0  0  0  0  0  0  0  0  0
    2.1434    1.2375    0.0000 Br  0  0  0  0  0  0  0  0  0  0  0  0
    1.4289   -0.0000    0.0000 C   0  0  0  0  0  0  0  0  0  0  0  0
   -0.1311   -4.2959    0.0000 C   0  0  0  0  0  0  0  0  0  0  0  0
    0.6939   -4.2959    0.0000 O   0  0  0  0  0  0  0  0  0  0  0  0
   -0.7145   -4.8792    0.0000 C   0  0  0  0  0  0  0  0  0  0  0  0
   -0.7145   -5.7042    0.0000 O   0  0  0  0  0  0  0  0  0  0  0  0
  1  2  1  0  0  0  0
  2  3  1  0  0  0  0
  3  4  1  0  0  0  0
  4  5  2  0  0  0  0
  5  6  1  0  0  0  0
  6  7  1  0  0  0  0
  7  8  1  0  0  0  0
  8  9  1  0  0  0  0
  6 10  1  0  0  0  0
 10 11  2  0  0  0  0
 10 12  1  0  0  0  0
 12 13  2  0  0  0  0
 13 14  1  0  0  0  0
 14 15  2  0  0  0  0
 15 16  1  0  0  0  0
 16 17  1  0  0  0  0
 12 17  1  0  0  0  0
 17 18  2  0  0  0  0
 15 19  1  0  0  0  0
 19 20  2  0  0  0  0
 20 21  1  0  0  0  0
 21 22  1  0  0  0  0
 21 23  2  0  0  0  0
 14 23  1  0  0  0  0
  5 24  1  0  0  0  0
 24 25  2  0  0  0  0
 24 26  1  0  0  0  0
  4 26  1  0  0  0  0
 26 27  2  0  0  0  0
M  END
> <ID>
CPD_1270

$$$$
CPD_1275
  Mrv1822 09091914012D          

 27 29  0  0  0  0            999 V2000
   -6.4302   -7.0125    0.0000 C   0  0  0  0  0  0  0  0  0  0  0  0
   -5.7158   -6.6000    0.0000 N   0  0  0  0  0  0  0  0  0  0  0  0
   -5.7158   -5.7750    0.0000 C   0  0  0  0  0  0  0  0  0  0  0  0
   -5.0013   -5.3625    0.0000 C   0  0  0  0  0  0  0  0  0  0  0  0
   -4.2868   -5.7750    0.0000 N   0  0  0  0  0  0  0  0  0  0  0  0
   -3.5724   -5.3625    0.0000 C   0  0  0  0  0  0  0  0  0  0  0  0
   -2.8579   -5.7750    0.0000 C   0  0  0  0  0  0  0  0  0  0  0  0
   -2.1434   -5.3625    0.0000 N   0  0  0  0  0  0  0  0  0  0  0  0
   -1.4289   -5.7750    0.0000 C   0  0  0  0  0  0  0  0  0  0  0  0
   -1.4289   -6.6000    0.0000 O   0  0  0  0  0  0  0  0  0  0  0  0
   -0.7145   -5.3625    0.0000 C   0  0  0  0  0  0  0  0  0  0  0  0
    0.0000   -5.7750    0.0000 C   0  0  0  0  0  0  0  0  0  0  0  0
    0.7145   -5.3625    0.0000 C   0  0  0  0  0  0  0  0  0  0  0  0
    1.4289   -5.7750    0.0000 C   0  0  0  0  0  0  0  0  0  0  0  0
    1.4289   -6.6000    0.0000 N   0  0  0  0  0  0  0  0  0  0  0  0
    2.1434   -7.0125    0.0000 C   0  0  0  0  0  0  0  0  0  0  0  0
    2.8579   -6.6000    0.0000 C   0  0  0  0  0  0  0  0  0  0  0  0
    2.8579   -5.7750    0.0000 C   0  0  0  0  0  0  0  0  0  0  0  0
    2.1434   -5.3625    0.0000 Cl  0  0  0  0  0  0  0  0  0  0  0  0
    3.5724   -5.3625    0.0000 C   0  0  0  0  0  0  0  0  0  0  0  0
    4.2868   -5.7750    0.0000 C   0  0  0  0  0  0  0  0  0  0  0  0
    4.2868   -6.6000    0.0000 C   0  0  0  0  0  0  0  0  0  0  0  0
    3.5724   -7.0125    0.0000 C   0  0  0  0  0  0  0  0  0  0  0  0
    0.7145   -7.0125    0.0000 C   0  0  0  0  0  0  0  0  0  0  0  0
    0.0000   -6.6000    0.0000 C   0  0  0  0  0  0  0  0  0  0  0  0
   -4.2868   -6.6000    0.0000 C   0  0  0  0  0  0  0  0  0  0  0  0
   -5.0013   -7.0125    0.0000 C   0  0  0  0  0  0  0  0  0  0  0  0
  1  2  1  0  0  0  0
  2  3  1  0  0  0  0
  3  4  1  0  0  0  0
  4  5  1  0  0  0  0
  5  6  1  0  0  0  0
  6  7  1  0  0  0  0
  7  8  1  0  0  0  0
  8  9  1  0  0  0  0
  9 10  2  0  0  0  0
  9 11  1  0  0  0  0
 11 12  1  0  0  0  0
 12 13  1  0  0  0  0
 13 14  1  0  0  0  0
 14 15  1  0  0  0  0
 15 16  1  0  0  0  0
 16 17  1  0  0  0  0
 17 18  2  0  0  0  0
 18 19  1  0  0  0  0
 18 20  1  0  0  0  0
 20 21  2  0  0  0  0
 21 22  1  0  0  0  0
 22 23  2  0  0  0  0
 17 23  1  0  0  0  0
 15 24  1  0  0  0  0
 24 25  1  0  0  0  0
 12 25  1  0  0  0  0
  5 26  1  0  0  0  0
 26 27  1  0  0  0  0
  2 27  1  0  0  0  0
M  END
> <ID>
CPD_1275

$$$$
CPD_1280
  Mrv1822 09091914012D          

 23 24  0  0  0  0            999 V2000
   -3.5724   -3.7125    0.0000 C   0  0  0  0  0  0  0  0  0  0  0  0
   -2.8579   -3.3000    0.0000 N   0  0  0  0  0  0  0  0  0  0  0  0
   -2.8579   -2.4750    0.0000 C   0  0  0  0  0  0  0  0  0  0  0  0
   -2.1434   -2.0625    0.0000 C   0  0  0  0  0  0  0  0  0  0  0  0
   -1.4289   -2.4750    0.0000 N   0  0  0  0  0  0  0  0  0  0  0  0
   -0.7145   -2.0625    0.0000 C   0  0  0  0  0  0  0  0  0  0  0  0
    0.0000   -2.4750    0.0000 C   0  0  0  0  0  0  0  0  0  0  0  0
    0.7145   -2.0625    0.0000 N   0  0  0  0  0  0  0  0  0  0  0  0
    1.4289   -2.4750    0.0000 C   0  0  0  0  0  0  0  0  0  0  0  0
    1.4289   -3.3000    0.0000 O   0  0  0  0  0  0  0  0  0  0  0  0
    2.1434   -2.0625    0.0000 C   0  0  0  0  0  0  0  0  0  0  0  0
    2.1434   -1.2375    0.0000 C   0  0  0  0  0  0  0  0  0  0  0  0
    2.8579   -0.8250    0.0000 C   0  0  0  0  0  0  0  0  0  0  0  0
    3.5724   -1.2375    0.0000 C   0  0  0  0  0  0  0  0  0  0  0  0
    3.5724   -2.0625    0.0000 C   0  0  0  0  0  0  0  0  0  0  0  0
    2.8579   -2.4750    0.0000 C   0  0  0  0  0  0  0  0  0  0  0  0
    2.8579   -3.3000    0.0000 F   0  0  0  0  0  0  0  0  0  0  0  0
    4.2868   -2.4750    0.0000 C   0  0  0  0  0  0  0  0  0  0  0  0
    5.0013   -2.8875    0.0000 F   0  0  0  0  0  0  0  0  0  0  0  0
    3.8743   -3.1895    0.0000 F   0  0  0  0  0  0  0  0  0  0  0  0
    4.6993   -1.7605    0.0000 F   0  0  0  0  0  0  0  0  0  0  0  0
   -1.4289   -3.3000    0.0000 C   0  0  0  0  0  0  0  0  0  0  0  0
   -2.1434   -3.7125    0.0000 C   0  0  0  0  0  0  0  0  0  0  0  0
  1  2  1  0  0  0  0
  2  3  1  0  0  0  0
  3  4  1  0  0  0  0
  4  5  1  0  0  0  0
  5  6  1  0  0  0  0
  6  7  1  0  0  0  0
  7  8  1  0  0  0  0
  8  9  1  0  0  0  0
  9 10  2  0  0  0  0
  9 11  1  0  0  0  0
 11 12  2  0  0  0  0
 12 13  1  0  0  0  0
 13 14  2  0  0  0  0
 14 15  1  0  0  0  0
 15 16  2  0  0  0  0
 11 16  1  0  0  0  0
 16 17  1  0  0  0  0
 15 18  1  0  0  0  0
 18 19  1  0  0  0  0
 18 20  1  0  0  0  0
 18 21  1  0  0  0  0
  5 22  1  0  0  0  0
 22 23  1  0  0  0  0
  2 23  1  0  0  0  0
M  END
> <ID>
CPD_1280

$$$$
CPD_1285
  Mrv1822 09091914012D          

 23 25  0  0  0  0            999 V2000
    4.6296    4.0820    0.0000 C   0  0  0  0  0  0  0  0  0  0  0  0
    4.0165    3.5300    0.0000 C   0  0  0  0  0  0  0  0  0  0  0  0
    3.2319    3.7849    0.0000 C   0  0  0  0  0  0  0  0  0  0  0  0
    2.5645    3.3000    0.0000 C   0  0  0  0  0  0  0  0  0  0  0  0
    1.8970    3.7849    0.0000 N   0  0  0  0  0  0  0  0  0  0  0  0
    2.1520    4.5695    0.0000 C   0  0  0  0  0  0  0  0  0  0  0  0
    1.6670    5.2370    0.0000 Br  0  0  0  0  0  0  0  0  0  0  0  0
    2.9770    4.5695    0.0000 S   0  0  0  0  0  0  0  0  0  0  0  0
    2.5645    2.4750    0.0000 C   0  0  0  0  0  0  0  0  0  0  0  0
    1.8500    2.0625    0.0000 O   0  0  0  0  0  0  0  0  0  0  0  0
    3.2789    2.0625    0.0000 N   0  0  0  0  0  0  0  0  0  0  0  0
    3.2789    1.2375    0.0000 C   0  0  0  0  0  0  0  0  0  0  0  0
    3.9934    0.8250    0.0000 C   0  0  0  0  0  0  0  0  0  0  0  0
    4.7079    1.2375    0.0000 C   0  0  0  0  0  0  0  0  0  0  0  0
    5.4223    1.6500    0.0000 N   0  0  0  0  0  0  0  0  0  0  0  0
    3.9934    0.0000    0.0000 C   0  0  0  0  0  0  0  0  0  0  0  0
    4.7079   -0.4125    0.0000 C   0  0  0  0  0  0  0  0  0  0  0  0
    3.2789   -0.4125    0.0000 N   0  0  0  0  0  0  0  0  0  0  0  0
    2.5645    0.0000    0.0000 C   0  0  0  0  0  0  0  0  0  0  0  0
    1.7798   -0.2549    0.0000 N   0  0  0  0  0  0  0  0  0  0  0  0
    1.2949    0.4125    0.0000 C   0  0  0  0  0  0  0  0  0  0  0  0
    1.7798    1.0799    0.0000 N   0  0  0  0  0  0  0  0  0  0  0  0
    2.5645    0.8250    0.0000 N   0  0  0  0  0  0  0  0  0  0  0  0
  1  2  1  0  0  0  0
  2  3  1  0  0  0  0
  3  4  2  0  0  0  0
  4  5  1  0  0  0  0
  5  6  2  0  0  0  0
  6  7  1  0  0  0  0
  6  8  1  0  0  0  0
  3  8  1  0  0  0  0
  4  9  1  0  0  0  0
  9 10  2  0  0  0  0
  9 11  1  0  0  0  0
 11 12  1  0  0  0  0
 12 13  2  0  0  0  0
 13 14  1  0  0  0  0
 14 15  3  0  0  0  0
 13 16  1  0  0  0  0
 16 17  1  0  0  0  0
 16 18  2  0  0  0  0
 18 19  1  0  0  0  0
 19 20  2  0  0  0  0
 20 21  1  0  0  0  0
 21 22  2  0  0  0  0
 22 23  1  0  0  0  0
 12 23  1  0  0  0  0
 19 23  1  0  0  0  0
M  END
> <ID>
CPD_1285

$$$$
CPD_1290
  Mrv1822 09091914012D          

 25 26  0  0  0  0            999 V2000
   -0.7145   -1.2375    0.0000 O   0  0  0  0  0  0  0  0  0  0  0  0
    0.0000   -1.6500    0.0000 C   0  0  0  0  0  0  0  0  0  0  0  0
    0.7145   -1.2375    0.0000 O   0  0  0  0  0  0  0  0  0  0  0  0
    0.0000   -2.4750    0.0000 C   0  0  0  0  0  0  0  0  0  0  0  0
    0.7145   -2.8875    0.0000 C   0  0  0  0  0  0  0  0  0  0  0  0
    1.4289   -2.4750    0.0000 N   0  0  0  0  0  0  0  0  0  0  0  0
    2.1434   -2.8875    0.0000 C   0  0  0  0  0  0  0  0  0  0  0  0
    2.1434   -3.7125    0.0000 O   0  0  0  0  0  0  0  0  0  0  0  0
    2.8579   -2.4750    0.0000 C   0  0  0  0  0  0  0  0  0  0  0  0
    2.8579   -1.6500    0.0000 C   0  0  0  0  0  0  0  0  0  0  0  0
    3.5724   -1.2375    0.0000 C   0  0  0  0  0  0  0  0  0  0  0  0
    4.2868   -1.6500    0.0000 C   0  0  0  0  0  0  0  0  0  0  0  0
    4.2868   -2.4750    0.0000 C   0  0  0  0  0  0  0  0  0  0  0  0
    3.5724   -2.8875    0.0000 C   0  0  0  0  0  0  0  0  0  0  0  0
    3.5724   -3.7125    0.0000 F   0  0  0  0  0  0  0  0  0  0  0  0
    5.0013   -2.8875    0.0000 C   0  0  0  0  0  0  0  0  0  0  0  0
    5.7158   -3.3000    0.0000 F   0  0  0  0  0  0  0  0  0  0  0  0
    5.4138   -2.1730    0.0000 F   0  0  0  0  0  0  0  0  0  0  0  0
    4.5888   -3.6020    0.0000 F   0  0  0  0  0  0  0  0  0  0  0  0
    0.7145   -3.7125    0.0000 C   0  0  0  0  0  0  0  0  0  0  0  0
    0.0000   -4.1250    0.0000 C   0  0  0  0  0  0  0  0  0  0  0  0
   -0.7145   -3.7125    0.0000 C   0  0  0  0  0  0  0  0  0  0  0  0
   -0.7145   -2.8875    0.0000 C   0  0  0  0  0  0  0  0  0  0  0  0
   -1.4289   -4.1250    0.0000 C   0  0  0  0  0  0  0  0  0  0  0  0
   -2.1434   -4.5375    0.0000 N   0  0  0  0  0  0  0  0  0  0  0  0
  1  2  1  0  0  0  0
  2  3  2  0  0  0  0
  2  4  1  0  0  0  0
  4  5  2  0  0  0  0
  5  6  1  0  0  0  0
  6  7  1  0  0  0  0
  7  8  2  0  0  0  0
  7  9  1  0  0  0  0
  9 10  2  0  0  0  0
 10 11  1  0  0  0  0
 11 12  2  0  0  0  0
 12 13  1  0  0  0  0
 13 14  2  0  0  0  0
  9 14  1  0  0  0  0
 14 15  1  0  0  0  0
 13 16  1  0  0  0  0
 16 17  1  0  0  0  0
 16 18  1  0  0  0  0
 16 19  1  0  0  0  0
  5 20  1  0  0  0  0
 20 21  2  0  0  0  0
 21 22  1  0  0  0  0
 22 23  2  0  0  0  0
  4 23  1  0  0  0  0
 22 24  1  0  0  0  0
 24 25  3  0  0  0  0
M  END
> <ID>
CPD_1290

$$$$
CPD_1295
  Mrv1822 09091914012D          

 19 20  0  0  0  0            999 V2000
    0.1067    2.4134    0.0000 O   0  0  0  0  0  0  0  0  0  0  0  0
   -0.6078    2.0009    0.0000 C   0  0  0  0  0  0  0  0  0  0  0  0
   -0.6078    1.1759    0.0000 O   0  0  0  0  0  0  0  0  0  0  0  0
   -1.3222    2.4134    0.0000 C   0  0  0  0  0  0  0  0  0  0  0  0
   -2.0367    2.0009    0.0000 C   0  0  0  0  0  0  0  0  0  0  0  0
   -2.0367    1.1759    0.0000 N   0  0  0  0  0  0  0  0  0  0  0  0
   -2.7512    0.7634    0.0000 C   0  0  0  0  0  0  0  0  0  0  0  0
   -3.4656    1.1759    0.0000 O   0  0  0  0  0  0  0  0  0  0  0  0
   -2.7512   -0.0616    0.0000 C   0  0  0  0  0  0  0  0  0  0  0  0
   -2.0837   -0.5465    0.0000 C   0  0  0  0  0  0  0  0  0  0  0  0
   -2.3387   -1.3312    0.0000 O   0  0  0  0  0  0  0  0  0  0  0  0
   -3.1637   -1.3312    0.0000 C   0  0  0  0  0  0  0  0  0  0  0  0
   -3.4186   -0.5465    0.0000 C   0  0  0  0  0  0  0  0  0  0  0  0
   -2.7512    2.4134    0.0000 C   0  0  0  0  0  0  0  0  0  0  0  0
   -2.7512    3.2384    0.0000 C   0  0  0  0  0  0  0  0  0  0  0  0
   -2.0367    3.6509    0.0000 C   0  0  0  0  0  0  0  0  0  0  0  0
   -1.3222    3.2384    0.0000 C   0  0  0  0  0  0  0  0  0  0  0  0
   -2.0367    4.4759    0.0000 C   0  0  0  0  0  0  0  0  0  0  0  0
   -2.0367    5.3009    0.0000 N   0  0  0  0  0  0  0  0  0  0  0  0
  1  2  1  0  0  0  0
  2  3  2  0  0  0  0
  2  4  1  0  0  0  0
  4  5  2  0  0  0  0
  5  6  1  0  0  0  0
  6  7  1  0  0  0  0
  7  8  2  0  0  0  0
  7  9  1  0  0  0  0
  9 10  2  0  0  0  0
 10 11  1  0  0  0  0
 11 12  1  0  0  0  0
 12 13  2  0  0  0  0
  9 13  1  0  0  0  0
  5 14  1  0  0  0  0
 14 15  2  0  0  0  0
 15 16  1  0  0  0  0
 16 17  2  0  0  0  0
  4 17  1  0  0  0  0
 16 18  1  0  0  0  0
 18 19  3  0  0  0  0
M  END
> <ID>
CPD_1295

$$$$
CPD_1300
  Mrv1822 09091914012D          

 20 21  0  0  1  0            999 V2000
    0.7145   -1.2375    0.0000 C   0  0  0  0  0  0  0  0  0  0  0  0
    0.7145   -0.4125    0.0000 C   0  0  0  0  0  0  0  0  0  0  0  0
   -0.0000    0.0000    0.0000 N   0  0  0  0  0  0  0  0  0  0  0  0
   -0.0000    0.8250    0.0000 C   0  0  0  0  0  0  0  0  0  0  0  0
    0.7145    1.2375    0.0000 C   0  0  0  0  0  0  0  0  0  0  0  0
    1.4289    0.8250    0.0000 C   0  0  0  0  0  0  0  0  0  0  0  0
    2.1434    1.2375    0.0000 C   0  0  0  0  0  0  0  0  0  0  0  0
    2.8579    0.8250    0.0000 C   0  0  0  0  0  0  0  0  0  0  0  0
    3.5724    1.2375    0.0000 N   0  0  0  0  0  0  0  0  0  0  0  0
    4.2868    0.8250    0.0000 C   0  0  0  0  0  0  0  0  0  0  0  0
    4.2868    0.0000    0.0000 O   0  0  0  0  0  0  0  0  0  0  0  0
    5.0013    1.2375    0.0000 C   0  0  2  0  0  0  0  0  0  0  0  0
    5.0875    2.0580    0.0000 C   0  0  0  0  0  0  0  0  0  0  0  0
    5.8945    2.2295    0.0000 C   0  0  0  0  0  0  0  0  0  0  0  0
    6.3070    1.5150    0.0000 C   0  0  0  0  0  0  0  0  0  0  0  0
    5.7550    0.9019    0.0000 C   0  0  1  0  0  0  0  0  0  0  0  0
    5.9265    0.0950    0.0000 C   0  0  0  0  0  0  0  0  0  0  0  0
    6.7111   -0.1600    0.0000 O   0  0  0  0  0  0  0  0  0  0  0  0
    5.3134   -0.4571    0.0000 O   0  0  0  0  0  0  0  0  0  0  0  0
    1.4289    0.0000    0.0000 N   0  0  0  0  0  0  0  0  0  0  0  0
  1  2  1  0  0  0  0
  2  3  2  0  0  0  0
  3  4  1  0  0  0  0
  4  5  2  0  0  0  0
  5  6  1  0  0  0  0
  6  7  1  0  0  0  0
  7  8  1  0  0  0  0
  8  9  1  0  0  0  0
  9 10  1  0  0  0  0
 10 11  2  0  0  0  0
 12 10  1  6  0  0  0
 12 13  1  0  0  0  0
 13 14  1  0  0  0  0
 14 15  1  0  0  0  0
 16 15  1  0  0  0  0
 12 16  1  0  0  0  0
 16 17  1  1  0  0  0
 17 18  1  0  0  0  0
 17 19  2  0  0  0  0
  6 20  2  0  0  0  0
  2 20  1  0  0  0  0
M  END
> <ID>
CPD_1300

$$$$
CPD_1305
  Mrv1822 09091914012D          

 26 28  0  0  0  0            999 V2000
    0.7145   -8.6625    0.0000 C   0  0  0  0  0  0  0  0  0  0  0  0
    0.7145   -7.8375    0.0000 C   0  0  0  0  0  0  0  0  0  0  0  0
    0.0000   -7.4250    0.0000 N   0  0  0  0  0  0  0  0  0  0  0  0
    0.0000   -6.6000    0.0000 C   0  0  0  0  0  0  0  0  0  0  0  0
    0.7145   -6.1875    0.0000 C   0  0  0  0  0  0  0  0  0  0  0  0
    1.4289   -6.6000    0.0000 C   0  0  0  0  0  0  0  0  0  0  0  0
    2.1434   -6.1875    0.0000 C   0  0  0  0  0  0  0  0  0  0  0  0
    2.8579   -6.6000    0.0000 C   0  0  0  0  0  0  0  0  0  0  0  0
    3.5724   -6.1875    0.0000 N   0  0  0  0  0  0  0  0  0  0  0  0
    4.2868   -6.6000    0.0000 C   0  0  0  0  0  0  0  0  0  0  0  0
    4.2868   -7.4250    0.0000 O   0  0  0  0  0  0  0  0  0  0  0  0
    5.0013   -6.1875    0.0000 C   0  0  0  0  0  0  0  0  0  0  0  0
    5.7158   -6.6000    0.0000 C   0  0  0  0  0  0  0  0  0  0  0  0
    6.4302   -6.1875    0.0000 C   0  0  0  0  0  0  0  0  0  0  0  0
    7.1447   -6.6000    0.0000 C   0  0  0  0  0  0  0  0  0  0  0  0
    7.1447   -7.4250    0.0000 C   0  0  0  0  0  0  0  0  0  0  0  0
    6.4302   -7.8375    0.0000 C   0  0  0  0  0  0  0  0  0  0  0  0
    5.7158   -7.4250    0.0000 C   0  0  0  0  0  0  0  0  0  0  0  0
    7.8592   -7.8375    0.0000 C   0  0  0  0  0  0  0  0  0  0  0  0
    8.5737   -7.4250    0.0000 C   0  0  0  0  0  0  0  0  0  0  0  0
    9.2881   -7.8375    0.0000 C   0  0  0  0  0  0  0  0  0  0  0  0
    9.2881   -8.6625    0.0000 C   0  0  0  0  0  0  0  0  0  0  0  0
   10.0026   -9.0750    0.0000 F   0  0  0  0  0  0  0  0  0  0  0  0
    8.5737   -9.0750    0.0000 C   0  0  0  0  0  0  0  0  0  0  0  0
    7.8592   -8.6625    0.0000 C   0  0  0  0  0  0  0  0  0  0  0  0
    1.4289   -7.4250    0.0000 N   0  0  0  0  0  0  0  0  0  0  0  0
  1  2  1  0  0  0  0
  2  3  2  0  0  0  0
  3  4  1  0  0  0  0
  4  5  2  0  0  0  0
  5  6  1  0  0  0  0
  6  7  1  0  0  0  0
  7  8  1  0  0  0  0
  8  9  1  0  0  0  0
  9 10  1  0  0  0  0
 10 11  2  0  0  0  0
 10 12  1  0  0  0  0
 12 13  1  0  0  0  0
 13 14  2  0  0  0  0
 14 15  1  0  0  0  0
 15 16  2  0  0  0  0
 16 17  1  0  0  0  0
 17 18  2  0  0  0  0
 13 18  1  0  0  0  0
 16 19  1  0  0  0  0
 19 20  2  0  0  0  0
 20 21  1  0  0  0  0
 21 22  2  0  0  0  0
 22 23  1  0  0  0  0
 22 24  1  0  0  0  0
 24 25  2  0  0  0  0
 19 25  1  0  0  0  0
  6 26  2  0  0  0  0
  2 26  1  0  0  0  0
M  END
> <ID>
CPD_1305

$$$$
CPD_1310
  Mrv1822 09091914012D          

 25 27  0  0  1  0            999 V2000
    3.4656   -1.2991    0.0000 C   0  0  0  0  0  0  0  0  0  0  0  0
    3.4656   -0.4741    0.0000 C   0  0  0  0  0  0  0  0  0  0  0  0
    2.7512   -0.0616    0.0000 N   0  0  0  0  0  0  0  0  0  0  0  0
    2.7512    0.7634    0.0000 C   0  0  2  0  0  0  0  0  0  0  0  0
    2.0367    1.1759    0.0000 C   0  0  0  0  0  0  0  0  0  0  0  0
    2.0367    2.0009    0.0000 C   0  0  0  0  0  0  0  0  0  0  0  0
    2.7512    2.4134    0.0000 C   0  0  0  0  0  0  0  0  0  0  0  0
    3.4656    2.0009    0.0000 C   0  0  0  0  0  0  0  0  0  0  0  0
    3.4656    1.1759    0.0000 C   0  0  1  0  0  0  0  0  0  0  0  0
    4.1801    0.7634    0.0000 O   0  0  0  0  0  0  0  0  0  0  0  0
    2.0367   -0.4741    0.0000 C   0  0  0  0  0  0  0  0  0  0  0  0
    1.3222   -0.0616    0.0000 O   0  0  0  0  0  0  0  0  0  0  0  0
    2.0367   -1.2991    0.0000 C   0  0  0  0  0  0  0  0  0  0  0  0
    2.7041   -1.7840    0.0000 C   0  0  0  0  0  0  0  0  0  0  0  0
    2.4492   -2.5687    0.0000 S   0  0  0  0  0  0  0  0  0  0  0  0
    1.6242   -2.5687    0.0000 C   0  0  0  0  0  0  0  0  0  0  0  0
    1.1393   -3.2361    0.0000 O   0  0  0  0  0  0  0  0  0  0  0  0
    0.3188   -3.1499    0.0000 C   0  0  0  0  0  0  0  0  0  0  0  0
   -0.1661   -3.8173    0.0000 C   0  0  0  0  0  0  0  0  0  0  0  0
   -0.9866   -3.7311    0.0000 C   0  0  0  0  0  0  0  0  0  0  0  0
   -1.3222   -2.9774    0.0000 C   0  0  0  0  0  0  0  0  0  0  0  0
   -0.8372   -2.3099    0.0000 C   0  0  0  0  0  0  0  0  0  0  0  0
   -1.1728   -1.5563    0.0000 Cl  0  0  0  0  0  0  0  0  0  0  0  0
   -0.0168   -2.3962    0.0000 C   0  0  0  0  0  0  0  0  0  0  0  0
    1.3693   -1.7840    0.0000 N   0  0  0  0  0  0  0  0  0  0  0  0
  1  2  1  0  0  0  0
  2  3  1  0  0  0  0
  4  3  1  6  0  0  0
  4  5  1  0  0  0  0
  5  6  1  0  0  0  0
  6  7  1  0  0  0  0
  7  8  1  0  0  0  0
  9  8  1  0  0  0  0
  4  9  1  0  0  0  0
  9 10  1  1  0  0  0
  3 11  1  0  0  0  0
 11 12  2  0  0  0  0
 11 13  1  0  0  0  0
 13 14  2  0  0  0  0
 14 15  1  0  0  0  0
 15 16  1  0  0  0  0
 16 17  1  0  0  0  0
 17 18  1  0  0  0  0
 18 19  2  0  0  0  0
 19 20  1  0  0  0  0
 20 21  2  0  0  0  0
 21 22  1  0  0  0  0
 22 23  1  0  0  0  0
 22 24  2  0  0  0  0
 18 24  1  0  0  0  0
 16 25  2  0  0  0  0
 13 25  1  0  0  0  0
M  END
> <ID>
CPD_1310

$$$$
CPD_1315
  Mrv1822 09091914012D          

 22 24  0  0  1  0            999 V2000
    1.0813    1.8507    0.0000 H   0  0  0  0  0  0  0  0  0  0  0  0
    1.0813    1.0257    0.0000 C   0  0  2  0  0  0  0  0  0  0  0  0
    0.3668    0.6132    0.0000 C   0  0  0  0  0  0  0  0  0  0  0  0
    0.3668   -0.2118    0.0000 C   0  0  0  0  0  0  0  0  0  0  0  0
    1.0813   -0.6243    0.0000 C   0  0  1  0  0  0  0  0  0  0  0  0
    1.0813   -1.4493    0.0000 H   0  0  0  0  0  0  0  0  0  0  0  0
    1.2875    0.2007    0.0000 O   0  0  0  0  0  0  0  0  0  0  0  0
    1.7957   -0.2118    0.0000 C   0  0  2  0  0  0  0  0  0  0  0  0
    1.7957    0.6132    0.0000 C   0  0  1  0  0  0  0  0  0  0  0  0
    2.5102    1.0257    0.0000 N   0  0  0  0  0  0  0  0  0  0  0  0
    2.5102   -0.6243    0.0000 C   0  0  0  0  0  0  0  0  0  0  0  0
    2.5102   -1.4493    0.0000 O   0  0  0  0  0  0  0  0  0  0  0  0
    3.2247   -0.2118    0.0000 N   0  0  0  0  0  0  0  0  0  0  0  0
    3.2247    0.6132    0.0000 C   0  0  0  0  0  0  0  0  0  0  0  0
    3.9392    1.0257    0.0000 C   0  0  0  0  0  0  0  0  0  0  0  0
    3.9392   -0.6243    0.0000 C   0  0  2  0  0  0  0  0  0  0  0  0
    4.6536   -0.2118    0.0000 C   0  0  0  0  0  0  0  0  0  0  0  0
    5.3681   -0.6243    0.0000 C   0  0  0  0  0  0  0  0  0  0  0  0
    5.3681   -1.4493    0.0000 C   0  0  0  0  0  0  0  0  0  0  0  0
    4.6536   -1.8618    0.0000 C   0  0  0  0  0  0  0  0  0  0  0  0
    3.9392   -1.4493    0.0000 C   0  0  1  0  0  0  0  0  0  0  0  0
    3.2247   -1.8618    0.0000 O   0  0  0  0  0  0  0  0  0  0  0  0
  2  1  1  6  0  0  0
  2  3  1  0  0  0  0
  3  4  1  0  0  0  0
  5  4  1  0  0  0  0
  5  6  1  6  0  0  0
  5  7  1  0  0  0  0
  2  7  1  0  0  0  0
  8  5  1  0  0  0  0
  8  9  1  0  0  0  0
  9  2  1  0  0  0  0
  9 10  1  6  0  0  0
  8 11  1  6  0  0  0
 11 12  2  0  0  0  0
 11 13  1  0  0  0  0
 13 14  1  0  0  0  0
 14 15  1  0  0  0  0
 16 13  1  6  0  0  0
 16 17  1  0  0  0  0
 17 18  1  0  0  0  0
 18 19  1  0  0  0  0
 19 20  1  0  0  0  0
 21 20  1  0  0  0  0
 16 21  1  0  0  0  0
 21 22  1  1  0  0  0
M  END
> <ID>
CPD_1315

$$$$
CPD_1320
  Mrv1822 09091914012D          

 28 31  0  0  1  0            999 V2000
   -0.4849    0.7615    0.0000 C   0  0  0  0  0  0  0  0  0  0  0  0
   -1.3099    0.7615    0.0000 C   0  0  0  0  0  0  0  0  0  0  0  0
   -1.7224    0.0470    0.0000 N   0  0  0  0  0  0  0  0  0  0  0  0
   -2.5474    0.0470    0.0000 C   0  0  2  0  0  0  0  0  0  0  0  0
   -2.9599   -0.6674    0.0000 C   0  0  0  0  0  0  0  0  0  0  0  0
   -3.7849   -0.6674    0.0000 C   0  0  0  0  0  0  0  0  0  0  0  0
   -4.1974    0.0470    0.0000 C   0  0  0  0  0  0  0  0  0  0  0  0
   -3.7849    0.7615    0.0000 C   0  0  0  0  0  0  0  0  0  0  0  0
   -2.9599    0.7615    0.0000 C   0  0  1  0  0  0  0  0  0  0  0  0
   -2.5474    1.4760    0.0000 O   0  0  0  0  0  0  0  0  0  0  0  0
   -1.3099   -0.6674    0.0000 C   0  0  0  0  0  0  0  0  0  0  0  0
   -1.7224   -1.3819    0.0000 O   0  0  0  0  0  0  0  0  0  0  0  0
   -0.4849   -0.6674    0.0000 C   0  0  0  0  0  0  0  0  0  0  0  0
   -0.0000   -1.3349    0.0000 C   0  0  0  0  0  0  0  0  0  0  0  0
    0.7846   -1.0799    0.0000 C   0  0  0  0  0  0  0  0  0  0  0  0
    0.7846   -0.2549    0.0000 C   0  0  0  0  0  0  0  0  0  0  0  0
   -0.0000    0.0000    0.0000 N   0  0  0  0  0  0  0  0  0  0  0  0
    1.5692    0.0000    0.0000 C   0  0  0  0  0  0  0  0  0  0  0  0
    2.0542   -0.6674    0.0000 C   0  0  0  0  0  0  0  0  0  0  0  0
    1.5692   -1.3349    0.0000 O   0  0  0  0  0  0  0  0  0  0  0  0
    2.8792   -0.6674    0.0000 C   0  0  0  0  0  0  0  0  0  0  0  0
    3.2917    0.0470    0.0000 C   0  0  0  0  0  0  0  0  0  0  0  0
    4.1167    0.0470    0.0000 C   0  0  0  0  0  0  0  0  0  0  0  0
    4.5292   -0.6674    0.0000 C   0  0  0  0  0  0  0  0  0  0  0  0
    5.3542   -0.6674    0.0000 Cl  0  0  0  0  0  0  0  0  0  0  0  0
    4.1167   -1.3819    0.0000 C   0  0  0  0  0  0  0  0  0  0  0  0
    4.5292   -2.0964    0.0000 Cl  0  0  0  0  0  0  0  0  0  0  0  0
    3.2917   -1.3819    0.0000 C   0  0  0  0  0  0  0  0  0  0  0  0
  1  2  1  0  0  0  0
  2  3  1  0  0  0  0
  4  3  1  6  0  0  0
  4  5  1  0  0  0  0
  5  6  1  0  0  0  0
  6  7  1  0  0  0  0
  7  8  1  0  0  0  0
  9  8  1  0  0  0  0
  4  9  1  0  0  0  0
  9 10  1  1  0  0  0
  3 11  1  0  0  0  0
 11 12  2  0  0  0  0
 11 13  1  0  0  0  0
 13 14  2  0  0  0  0
 14 15  1  0  0  0  0
 15 16  2  0  0  0  0
 16 17  1  0  0  0  0
 13 17  1  0  0  0  0
 16 18  1  0  0  0  0
 18 19  2  0  0  0  0
 19 20  1  0  0  0  0
 15 20  1  0  0  0  0
 19 21  1  0  0  0  0
 21 22  2  0  0  0  0
 22 23  1  0  0  0  0
 23 24  2  0  0  0  0
 24 25  1  0  0  0  0
 24 26  1  0  0  0  0
 26 27  1  0  0  0  0
 26 28  2  0  0  0  0
 21 28  1  0  0  0  0
M  END
> <ID>
CPD_1320

$$$$
CPD_1325
  Mrv1822 09091914012D          

 23 24  0  0  0  0            999 V2000
    0.7145    2.8875    0.0000 C   0  0  0  0  0  0  0  0  0  0  0  0
    0.7145    2.0625    0.0000 C   0  0  0  0  0  0  0  0  0  0  0  0
   -0.1105    2.0625    0.0000 C   0  0  0  0  0  0  0  0  0  0  0  0
    1.5395    2.0625    0.0000 C   0  0  0  0  0  0  0  0  0  0  0  0
    0.7145    1.2375    0.0000 C   0  0  0  0  0  0  0  0  0  0  0  0
    1.4289    0.8250    0.0000 N   0  0  0  0  0  0  0  0  0  0  0  0
    1.4289    0.0000    0.0000 C   0  0  0  0  0  0  0  0  0  0  0  0
    0.7145   -0.4125    0.0000 O   0  0  0  0  0  0  0  0  0  0  0  0
    2.1434   -0.4125    0.0000 C   0  0  0  0  0  0  0  0  0  0  0  0
    2.1434   -1.2375    0.0000 C   0  0  0  0  0  0  0  0  0  0  0  0
    2.8579   -1.6500    0.0000 C   0  0  0  0  0  0  0  0  0  0  0  0
    2.8579   -2.4750    0.0000 C   0  0  0  0  0  0  0  0  0  0  0  0
    2.1434   -2.8875    0.0000 C   0  0  0  0  0  0  0  0  0  0  0  0
    2.1434   -3.7125    0.0000 Cl  0  0  0  0  0  0  0  0  0  0  0  0
    1.4289   -2.4750    0.0000 C   0  0  0  0  0  0  0  0  0  0  0  0
    1.4289   -1.6500    0.0000 C   0  0  0  0  0  0  0  0  0  0  0  0
    2.8579   -0.0000    0.0000 C   0  0  0  0  0  0  0  0  0  0  0  0
    2.8579    0.8250    0.0000 C   0  0  0  0  0  0  0  0  0  0  0  0
    3.5724    1.2375    0.0000 C   0  0  0  0  0  0  0  0  0  0  0  0
    4.2868    0.8250    0.0000 C   0  0  0  0  0  0  0  0  0  0  0  0
    5.0013    1.2375    0.0000 Cl  0  0  0  0  0  0  0  0  0  0  0  0
    4.2868   -0.0000    0.0000 C   0  0  0  0  0  0  0  0  0  0  0  0
    3.5724   -0.4125    0.0000 C   0  0  0  0  0  0  0  0  0  0  0  0
  1  2  1  0  0  0  0
  2  3  1  0  0  0  0
  2  4  1  0  0  0  0
  2  5  1  0  0  0  0
  5  6  1  0  0  0  0
  6  7  1  0  0  0  0
  7  8  2  0  0  0  0
  7  9  1  0  0  0  0
  9 10  1  0  0  0  0
 10 11  2  0  0  0  0
 11 12  1  0  0  0  0
 12 13  2  0  0  0  0
 13 14  1  0  0  0  0
 13 15  1  0  0  0  0
 15 16  2  0  0  0  0
 10 16  1  0  0  0  0
  9 17  1  0  0  0  0
 17 18  2  0  0  0  0
 18 19  1  0  0  0  0
 19 20  2  0  0  0  0
 20 21  1  0  0  0  0
 20 22  1  0  0  0  0
 22 23  2  0  0  0  0
 17 23  1  0  0  0  0
M  END
> <ID>
CPD_1325

$$$$
CPD_1330
  Mrv1822 09091914012D          

 17 16  0  0  0  0            999 V2000
    0.8546    2.9684    0.0000 C   0  0  0  0  0  0  0  0  0  0  0  0
    1.5691    2.5559    0.0000 C   0  0  0  0  0  0  0  0  0  0  0  0
    1.1566    1.8414    0.0000 C   0  0  0  0  0  0  0  0  0  0  0  0
    1.9816    3.2704    0.0000 C   0  0  0  0  0  0  0  0  0  0  0  0
    2.2836    2.1434    0.0000 C   0  0  0  0  0  0  0  0  0  0  0  0
    2.9980    2.5559    0.0000 N   0  0  0  0  0  0  0  0  0  0  0  0
    3.7125    2.1434    0.0000 C   0  0  0  0  0  0  0  0  0  0  0  0
    3.7125    1.3184    0.0000 O   0  0  0  0  0  0  0  0  0  0  0  0
    4.4270    2.5559    0.0000 C   0  0  0  0  0  0  0  0  0  0  0  0
    5.1414    2.1434    0.0000 S   0  0  0  0  0  0  0  0  0  0  0  0
    5.8559    2.5559    0.0000 C   0  0  0  0  0  0  0  0  0  0  0  0
    5.8559    3.3809    0.0000 S   0  0  0  0  0  0  0  0  0  0  0  0
    6.5704    2.1434    0.0000 S   0  0  0  0  0  0  0  0  0  0  0  0
    7.2849    2.5559    0.0000 C   0  0  0  0  0  0  0  0  0  0  0  0
    7.9993    2.1434    0.0000 C   0  0  0  0  0  0  0  0  0  0  0  0
    8.7138    2.5559    0.0000 O   0  0  0  0  0  0  0  0  0  0  0  0
    7.9993    1.3184    0.0000 O   0  0  0  0  0  0  0  0  0  0  0  0
  1  2  1  0  0  0  0
  2  3  1  0  0  0  0
  2  4  1  0  0  0  0
  2  5  1  0  0  0  0
  5  6  1  0  0  0  0
  6  7  1  0  0  0  0
  7  8  2  0  0  0  0
  7  9  1  0  0  0  0
  9 10  1  0  0  0  0
 10 11  1  0  0  0  0
 11 12  2  0  0  0  0
 11 13  1  0  0  0  0
 13 14  1  0  0  0  0
 14 15  1  0  0  0  0
 15 16  1  0  0  0  0
 15 17  2  0  0  0  0
M  END
> <ID>
CPD_1330

$$$$
CPD_1335
  Mrv1822 09091914012D          

 31 33  0  0  0  0            999 V2000
   -0.7796   -1.3800    0.0000 C   0  0  0  0  0  0  0  0  0  0  0  0
    0.0000   -1.6500    0.0000 S   0  0  0  0  0  0  0  0  0  0  0  0
    0.7796   -1.9200    0.0000 O   0  0  0  0  0  0  0  0  0  0  0  0
   -0.2700   -2.4296    0.0000 O   0  0  0  0  0  0  0  0  0  0  0  0
    0.2700   -0.8704    0.0000 N   0  0  0  0  0  0  0  0  0  0  0  0
    1.0802   -0.7145    0.0000 C   0  0  0  0  0  0  0  0  0  0  0  0
    1.6203   -1.3382    0.0000 C   0  0  0  0  0  0  0  0  0  0  0  0
    2.4304   -1.1823    0.0000 C   0  0  0  0  0  0  0  0  0  0  0  0
    2.9705   -1.8059    0.0000 C   0  0  0  0  0  0  0  0  0  0  0  0
    2.7004   -2.5855    0.0000 O   0  0  0  0  0  0  0  0  0  0  0  0
    3.7806   -1.6500    0.0000 N   0  0  0  0  0  0  0  0  0  0  0  0
    4.3207   -2.2736    0.0000 C   0  0  0  0  0  0  0  0  0  0  0  0
    5.1308   -2.1177    0.0000 C   0  0  0  0  0  0  0  0  0  0  0  0
    5.6709   -2.7414    0.0000 C   0  0  0  0  0  0  0  0  0  0  0  0
    6.4811   -2.5855    0.0000 O   0  0  0  0  0  0  0  0  0  0  0  0
    7.0212   -3.2091    0.0000 C   0  0  0  0  0  0  0  0  0  0  0  0
    7.8432   -3.1387    0.0000 N   0  0  0  0  0  0  0  0  0  0  0  0
    8.1641   -3.8987    0.0000 N   0  0  0  0  0  0  0  0  0  0  0  0
    7.5405   -4.4388    0.0000 C   0  0  0  0  0  0  0  0  0  0  0  0
    6.8341   -4.0126    0.0000 S   0  0  0  0  0  0  0  0  0  0  0  0
    5.4009   -3.5209    0.0000 C   0  0  0  0  0  0  0  0  0  0  0  0
    4.5908   -3.6768    0.0000 C   0  0  0  0  0  0  0  0  0  0  0  0
    4.0507   -3.0532    0.0000 C   0  0  0  0  0  0  0  0  0  0  0  0
   -0.2700   -0.2468    0.0000 C   0  0  0  0  0  0  0  0  0  0  0  0
   -1.0802   -0.4027    0.0000 C   0  0  0  0  0  0  0  0  0  0  0  0
   -1.6203    0.2209    0.0000 C   0  0  0  0  0  0  0  0  0  0  0  0
   -2.4304    0.0650    0.0000 Cl  0  0  0  0  0  0  0  0  0  0  0  0
   -1.3502    1.0005    0.0000 C   0  0  0  0  0  0  0  0  0  0  0  0
   -0.5401    1.1564    0.0000 C   0  0  0  0  0  0  0  0  0  0  0  0
    0.0000    0.5327    0.0000 C   0  0  0  0  0  0  0  0  0  0  0  0
    0.8101    0.6887    0.0000 Cl  0  0  0  0  0  0  0  0  0  0  0  0
  1  2  1  0  0  0  0
  2  3  2  0  0  0  0
  2  4  2  0  0  0  0
  2  5  1  0  0  0  0
  5  6  1  0  0  0  0
  6  7  1  0  0  0  0
  7  8  1  0  0  0  0
  8  9  1  0  0  0  0
  9 10  2  0  0  0  0
  9 11  1  0  0  0  0
 11 12  1  0  0  0  0
 12 13  2  0  0  0  0
 13 14  1  0  0  0  0
 14 15  1  0  0  0  0
 15 16  1  0  0  0  0
 16 17  2  0  0  0  0
 17 18  1  0  0  0  0
 18 19  2  0  0  0  0
 19 20  1  0  0  0  0
 16 20  1  0  0  0  0
 14 21  2  0  0  0  0
 21 22  1  0  0  0  0
 22 23  2  0  0  0  0
 12 23  1  0  0  0  0
  5 24  1  0  0  0  0
 24 25  2  0  0  0  0
 25 26  1  0  0  0  0
 26 27  1  0  0  0  0
 26 28  2  0  0  0  0
 28 29  1  0  0  0  0
 29 30  2  0  0  0  0
 24 30  1  0  0  0  0
 30 31  1  0  0  0  0
M  END
> <ID>
CPD_1335

$$$$
CPD_1340
  Mrv1822 09091914012D          

 23 26  0  0  0  0            999 V2000
    0.8838   -2.1500    0.0000 Br  0  0  0  0  0  0  0  0  0  0  0  0
    1.1387   -1.3654    0.0000 C   0  0  0  0  0  0  0  0  0  0  0  0
    0.6538   -0.6979    0.0000 C   0  0  0  0  0  0  0  0  0  0  0  0
    1.1387   -0.0305    0.0000 N   0  0  0  0  0  0  0  0  0  0  0  0
    1.9233   -0.2854    0.0000 C   0  0  0  0  0  0  0  0  0  0  0  0
    2.6378    0.1271    0.0000 C   0  0  0  0  0  0  0  0  0  0  0  0
    3.3523   -0.2854    0.0000 C   0  0  0  0  0  0  0  0  0  0  0  0
    3.3523   -1.1104    0.0000 C   0  0  0  0  0  0  0  0  0  0  0  0
    2.6378   -1.5229    0.0000 C   0  0  0  0  0  0  0  0  0  0  0  0
    1.9233   -1.1104    0.0000 N   0  0  0  0  0  0  0  0  0  0  0  0
    4.0668   -1.5229    0.0000 C   0  0  0  0  0  0  0  0  0  0  0  0
    4.7812   -1.1104    0.0000 O   0  0  0  0  0  0  0  0  0  0  0  0
    4.0668   -2.3479    0.0000 N   0  0  0  0  0  0  0  0  0  0  0  0
    4.7812   -2.7604    0.0000 C   0  0  0  0  0  0  0  0  0  0  0  0
    4.7812   -3.5854    0.0000 C   0  0  0  0  0  0  0  0  0  0  0  0
    4.0668   -3.9979    0.0000 C   0  0  0  0  0  0  0  0  0  0  0  0
    3.3523   -3.5854    0.0000 C   0  0  0  0  0  0  0  0  0  0  0  0
    3.3523   -2.7604    0.0000 C   0  0  0  0  0  0  0  0  0  0  0  0
    4.0668   -4.8229    0.0000 C   0  0  0  0  0  0  0  0  0  0  0  0
    4.7342   -5.3079    0.0000 C   0  0  0  0  0  0  0  0  0  0  0  0
    4.4793   -6.0925    0.0000 C   0  0  0  0  0  0  0  0  0  0  0  0
    3.6543   -6.0925    0.0000 C   0  0  0  0  0  0  0  0  0  0  0  0
    3.3993   -5.3079    0.0000 N   0  0  0  0  0  0  0  0  0  0  0  0
  1  2  1  0  0  0  0
  2  3  2  0  0  0  0
  3  4  1  0  0  0  0
  4  5  2  0  0  0  0
  5  6  1  0  0  0  0
  6  7  2  0  0  0  0
  7  8  1  0  0  0  0
  8  9  2  0  0  0  0
  9 10  1  0  0  0  0
  2 10  1  0  0  0  0
  5 10  1  0  0  0  0
  8 11  1  0  0  0  0
 11 12  2  0  0  0  0
 11 13  1  0  0  0  0
 13 14  1  0  0  0  0
 14 15  1  0  0  0  0
 15 16  1  0  0  0  0
 16 17  1  0  0  0  0
 17 18  1  0  0  0  0
 13 18  1  0  0  0  0
 16 19  1  0  0  0  0
 19 20  1  0  0  0  0
 20 21  1  0  0  0  0
 21 22  1  0  0  0  0
 22 23  1  0  0  0  0
 19 23  1  0  0  0  0
M  END
> <ID>
CPD_1340

$$$$
CPD_1345
  Mrv1822 09091914012D          

 25 27  0  0  0  0            999 V2000
    1.4289   10.4786    0.0000 C   0  0  0  0  0  0  0  0  0  0  0  0
    1.4289    9.6536    0.0000 C   0  0  0  0  0  0  0  0  0  0  0  0
    2.1434    9.2411    0.0000 C   0  0  0  0  0  0  0  0  0  0  0  0
    0.7145    9.2411    0.0000 O   0  0  0  0  0  0  0  0  0  0  0  0
    0.7145    8.4161    0.0000 C   0  0  0  0  0  0  0  0  0  0  0  0
    1.4289    8.0036    0.0000 O   0  0  0  0  0  0  0  0  0  0  0  0
   -0.0000    8.0036    0.0000 C   0  0  0  0  0  0  0  0  0  0  0  0
   -0.0000    7.1786    0.0000 C   0  0  0  0  0  0  0  0  0  0  0  0
   -0.7145    6.7661    0.0000 C   0  0  0  0  0  0  0  0  0  0  0  0
   -1.4289    7.1786    0.0000 C   0  0  0  0  0  0  0  0  0  0  0  0
   -1.4289    8.0036    0.0000 C   0  0  0  0  0  0  0  0  0  0  0  0
   -0.7145    8.4161    0.0000 C   0  0  0  0  0  0  0  0  0  0  0  0
    0.7145    6.7661    0.0000 C   0  0  0  0  0  0  0  0  0  0  0  0
    1.4289    7.1786    0.0000 O   0  0  0  0  0  0  0  0  0  0  0  0
    0.7145    5.9411    0.0000 N   0  0  0  0  0  0  0  0  0  0  0  0
    1.4289    5.5286    0.0000 C   0  0  0  0  0  0  0  0  0  0  0  0
    1.4289    4.7036    0.0000 C   0  0  0  0  0  0  0  0  0  0  0  0
    0.7145    4.2911    0.0000 C   0  0  0  0  0  0  0  0  0  0  0  0
    0.0000    4.7036    0.0000 C   0  0  0  0  0  0  0  0  0  0  0  0
   -0.0000    5.5286    0.0000 C   0  0  0  0  0  0  0  0  0  0  0  0
    0.7145    3.4661    0.0000 C   0  0  0  0  0  0  0  0  0  0  0  0
    1.3819    2.9812    0.0000 C   0  0  0  0  0  0  0  0  0  0  0  0
    1.1270    2.1965    0.0000 C   0  0  0  0  0  0  0  0  0  0  0  0
    0.3020    2.1965    0.0000 C   0  0  0  0  0  0  0  0  0  0  0  0
    0.0470    2.9812    0.0000 N   0  0  0  0  0  0  0  0  0  0  0  0
  1  2  1  0  0  0  0
  2  3  1  0  0  0  0
  2  4  1  0  0  0  0
  4  5  1  0  0  0  0
  5  6  2  0  0  0  0
  5  7  1  0  0  0  0
  7  8  2  0  0  0  0
  8  9  1  0  0  0  0
  9 10  2  0  0  0  0
 10 11  1  0  0  0  0
 11 12  2  0  0  0  0
  7 12  1  0  0  0  0
  8 13  1  0  0  0  0
 13 14  2  0  0  0  0
 13 15  1  0  0  0  0
 15 16  1  0  0  0  0
 16 17  1  0  0  0  0
 17 18  1  0  0  0  0
 18 19  1  0  0  0  0
 19 20  1  0  0  0  0
 15 20  1  0  0  0  0
 18 21  1  0  0  0  0
 21 22  1  0  0  0  0
 22 23  1  0  0  0  0
 23 24  1  0  0  0  0
 24 25  1  0  0  0  0
 21 25  1  0  0  0  0
M  END
> <ID>
CPD_1345

$$$$
CPD_1350
  Mrv1822 09091914012D          

 22 24  0  0  0  0            999 V2000
    2.8579    8.0036    0.0000 F   0  0  0  0  0  0  0  0  0  0  0  0
    2.1434    8.4161    0.0000 C   0  0  0  0  0  0  0  0  0  0  0  0
    1.4289    8.0036    0.0000 C   0  0  0  0  0  0  0  0  0  0  0  0
    1.4289    7.1786    0.0000 C   0  0  0  0  0  0  0  0  0  0  0  0
    0.7145    6.7661    0.0000 C   0  0  0  0  0  0  0  0  0  0  0  0
   -0.0000    7.1786    0.0000 O   0  0  0  0  0  0  0  0  0  0  0  0
    0.7145    5.9411    0.0000 N   0  0  0  0  0  0  0  0  0  0  0  0
    1.4289    5.5286    0.0000 C   0  0  0  0  0  0  0  0  0  0  0  0
    1.4289    4.7036    0.0000 C   0  0  0  0  0  0  0  0  0  0  0  0
    0.7145    4.2911    0.0000 C   0  0  0  0  0  0  0  0  0  0  0  0
    0.0000    4.7036    0.0000 C   0  0  0  0  0  0  0  0  0  0  0  0
   -0.0000    5.5286    0.0000 C   0  0  0  0  0  0  0  0  0  0  0  0
    0.7145    3.4661    0.0000 C   0  0  0  0  0  0  0  0  0  0  0  0
    1.3819    2.9812    0.0000 C   0  0  0  0  0  0  0  0  0  0  0  0
    1.1270    2.1965    0.0000 C   0  0  0  0  0  0  0  0  0  0  0  0
    0.3020    2.1965    0.0000 C   0  0  0  0  0  0  0  0  0  0  0  0
    0.0470    2.9812    0.0000 N   0  0  0  0  0  0  0  0  0  0  0  0
    0.7145    8.4161    0.0000 C   0  0  0  0  0  0  0  0  0  0  0  0
    0.7145    9.2411    0.0000 C   0  0  0  0  0  0  0  0  0  0  0  0
    1.4289    9.6536    0.0000 C   0  0  0  0  0  0  0  0  0  0  0  0
    1.4289   10.4786    0.0000 Br  0  0  0  0  0  0  0  0  0  0  0  0
    2.1434    9.2411    0.0000 C   0  0  0  0  0  0  0  0  0  0  0  0
  1  2  1  0  0  0  0
  2  3  2  0  0  0  0
  3  4  1  0  0  0  0
  4  5  1  0  0  0  0
  5  6  2  0  0  0  0
  5  7  1  0  0  0  0
  7  8  1  0  0  0  0
  8  9  1  0  0  0  0
  9 10  1  0  0  0  0
 10 11  1  0  0  0  0
 11 12  1  0  0  0  0
  7 12  1  0  0  0  0
 10 13  1  0  0  0  0
 13 14  1  0  0  0  0
 14 15  1  0  0  0  0
 15 16  1  0  0  0  0
 16 17  1  0  0  0  0
 13 17  1  0  0  0  0
  3 18  1  0  0  0  0
 18 19  2  0  0  0  0
 19 20  1  0  0  0  0
 20 21  1  0  0  0  0
 20 22  2  0  0  0  0
  2 22  1  0  0  0  0
M  END
> <ID>
CPD_1350

$$$$
CPD_1355
  Mrv1822 09091914012D          

 32 35  0  0  0  0            999 V2000
    2.1434   -6.1875    0.0000 O   0  0  0  0  0  0  0  0  0  0  0  0
    2.8579   -6.6000    0.0000 C   0  0  0  0  0  0  0  0  0  0  0  0
    3.5724   -6.1875    0.0000 O   0  0  0  0  0  0  0  0  0  0  0  0
    2.8579   -7.4250    0.0000 C   0  0  0  0  0  0  0  0  0  0  0  0
    3.5724   -7.8375    0.0000 C   0  0  0  0  0  0  0  0  0  0  0  0
    3.5724   -8.6625    0.0000 C   0  0  0  0  0  0  0  0  0  0  0  0
    2.8579   -9.0750    0.0000 C   0  0  0  0  0  0  0  0  0  0  0  0
    2.8579   -9.9000    0.0000 O   0  0  0  0  0  0  0  0  0  0  0  0
    2.1434  -10.3125    0.0000 C   0  0  0  0  0  0  0  0  0  0  0  0
    2.1434  -11.1375    0.0000 C   0  0  0  0  0  0  0  0  0  0  0  0
    1.4289  -11.5500    0.0000 C   0  0  0  0  0  0  0  0  0  0  0  0
    0.7145  -11.1375    0.0000 C   0  0  0  0  0  0  0  0  0  0  0  0
    0.7145  -10.3125    0.0000 C   0  0  0  0  0  0  0  0  0  0  0  0
    1.4289   -9.9000    0.0000 C   0  0  0  0  0  0  0  0  0  0  0  0
    0.0000  -11.5500    0.0000 C   0  0  0  0  0  0  0  0  0  0  0  0
   -0.7145  -11.1375    0.0000 O   0  0  0  0  0  0  0  0  0  0  0  0
    0.0000  -12.3750    0.0000 N   0  0  0  0  0  0  0  0  0  0  0  0
   -0.7145  -12.7875    0.0000 C   0  0  0  0  0  0  0  0  0  0  0  0
   -0.7145  -13.6125    0.0000 C   0  0  0  0  0  0  0  0  0  0  0  0
   -1.4289  -14.0250    0.0000 N   0  0  0  0  0  0  0  0  0  0  0  0
   -2.1434  -13.6125    0.0000 C   0  0  0  0  0  0  0  0  0  0  0  0
   -2.1434  -12.7875    0.0000 N   0  0  0  0  0  0  0  0  0  0  0  0
   -1.4289  -12.3750    0.0000 C   0  0  0  0  0  0  0  0  0  0  0  0
   -2.8579  -14.0250    0.0000 C   0  0  0  0  0  0  0  0  0  0  0  0
   -2.8579  -14.8500    0.0000 C   0  0  0  0  0  0  0  0  0  0  0  0
   -3.5724  -15.2625    0.0000 C   0  0  0  0  0  0  0  0  0  0  0  0
   -4.2868  -14.8500    0.0000 C   0  0  0  0  0  0  0  0  0  0  0  0
   -5.0013  -15.2625    0.0000 O   0  0  0  0  0  0  0  0  0  0  0  0
   -4.2868  -14.0250    0.0000 C   0  0  0  0  0  0  0  0  0  0  0  0
   -3.5724  -13.6125    0.0000 C   0  0  0  0  0  0  0  0  0  0  0  0
    2.1434   -8.6625    0.0000 C   0  0  0  0  0  0  0  0  0  0  0  0
    2.1434   -7.8375    0.0000 C   0  0  0  0  0  0  0  0  0  0  0  0
  1  2  1  0  0  0  0
  2  3  2  0  0  0  0
  2  4  1  0  0  0  0
  4  5  2  0  0  0  0
  5  6  1  0  0  0  0
  6  7  2  0  0  0  0
  7  8  1  0  0  0  0
  8  9  1  0  0  0  0
  9 10  2  0  0  0  0
 10 11  1  0  0  0  0
 11 12  2  0  0  0  0
 12 13  1  0  0  0  0
 13 14  2  0  0  0  0
  9 14  1  0  0  0  0
 12 15  1  0  0  0  0
 15 16  2  0  0  0  0
 15 17  1  0  0  0  0
 17 18  1  0  0  0  0
 18 19  2  0  0  0  0
 19 20  1  0  0  0  0
 20 21  2  0  0  0  0
 21 22  1  0  0  0  0
 22 23  2  0  0  0  0
 18 23  1  0  0  0  0
 21 24  1  0  0  0  0
 24 25  2  0  0  0  0
 25 26  1  0  0  0  0
 26 27  2  0  0  0  0
 27 28  1  0  0  0  0
 27 29  1  0  0  0  0
 29 30  2  0  0  0  0
 24 30  1  0  0  0  0
  7 31  1  0  0  0  0
 31 32  2  0  0  0  0
  4 32  1  0  0  0  0
M  END
> <ID>
CPD_1355

$$$$
CPD_1360
  Mrv1822 09091914012D          

 34 36  0  0  0  0            999 V2000
   -5.5337    4.3034    0.0000 C   0  0  0  0  0  0  0  0  0  0  0  0
   -5.1212    3.5889    0.0000 C   0  0  0  0  0  0  0  0  0  0  0  0
   -4.2962    3.5889    0.0000 O   0  0  0  0  0  0  0  0  0  0  0  0
   -3.8837    2.8744    0.0000 C   0  0  0  0  0  0  0  0  0  0  0  0
   -3.0587    2.8744    0.0000 C   0  0  0  0  0  0  0  0  0  0  0  0
   -2.6462    2.1599    0.0000 C   0  0  0  0  0  0  0  0  0  0  0  0
   -3.0587    1.4455    0.0000 C   0  0  0  0  0  0  0  0  0  0  0  0
   -3.8837    1.4455    0.0000 C   0  0  0  0  0  0  0  0  0  0  0  0
   -4.2962    2.1599    0.0000 C   0  0  0  0  0  0  0  0  0  0  0  0
   -2.6462    0.7310    0.0000 N   0  0  0  0  0  0  0  0  0  0  0  0
   -1.8212    0.7310    0.0000 C   0  0  0  0  0  0  0  0  0  0  0  0
   -1.4087    1.4455    0.0000 C   0  0  0  0  0  0  0  0  0  0  0  0
   -1.8212    2.1599    0.0000 C   0  0  0  0  0  0  0  0  0  0  0  0
   -1.4087    0.0165    0.0000 C   0  0  0  0  0  0  0  0  0  0  0  0
   -1.8212   -0.6979    0.0000 O   0  0  0  0  0  0  0  0  0  0  0  0
   -0.5837    0.0165    0.0000 N   0  0  0  0  0  0  0  0  0  0  0  0
   -0.1712   -0.6979    0.0000 C   0  0  0  0  0  0  0  0  0  0  0  0
    0.6538   -0.6979    0.0000 C   0  0  0  0  0  0  0  0  0  0  0  0
    1.1387   -0.0305    0.0000 N   0  0  0  0  0  0  0  0  0  0  0  0
    1.9233   -0.2854    0.0000 C   0  0  0  0  0  0  0  0  0  0  0  0
    2.6378    0.1271    0.0000 C   0  0  0  0  0  0  0  0  0  0  0  0
    3.3523   -0.2854    0.0000 C   0  0  0  0  0  0  0  0  0  0  0  0
    3.3523   -1.1104    0.0000 C   0  0  0  0  0  0  0  0  0  0  0  0
    4.0668   -1.5229    0.0000 Cl  0  0  0  0  0  0  0  0  0  0  0  0
    2.6378   -1.5229    0.0000 C   0  0  0  0  0  0  0  0  0  0  0  0
    1.9233   -1.1104    0.0000 C   0  0  0  0  0  0  0  0  0  0  0  0
    1.1387   -1.3654    0.0000 N   0  0  0  0  0  0  0  0  0  0  0  0
   -0.1712    0.7310    0.0000 C   0  0  0  0  0  0  0  0  0  0  0  0
    0.6538    0.7310    0.0000 C   0  0  0  0  0  0  0  0  0  0  0  0
   -0.5837    1.4455    0.0000 C   0  0  0  0  0  0  0  0  0  0  0  0
   -3.0587    0.0165    0.0000 S   0  0  0  0  0  0  0  0  0  0  0  0
   -3.4712   -0.6979    0.0000 C   0  0  0  0  0  0  0  0  0  0  0  0
   -2.3442   -0.3960    0.0000 O   0  0  0  0  0  0  0  0  0  0  0  0
   -3.7732    0.4290    0.0000 O   0  0  0  0  0  0  0  0  0  0  0  0
  1  2  1  0  0  0  0
  2  3  1  0  0  0  0
  3  4  1  0  0  0  0
  4  5  2  0  0  0  0
  5  6  1  0  0  0  0
  6  7  2  0  0  0  0
  7  8  1  0  0  0  0
  8  9  2  0  0  0  0
  4  9  1  0  0  0  0
  7 10  1  0  0  0  0
 10 11  1  0  0  0  0
 11 12  1  0  0  0  0
 12 13  1  0  0  0  0
 11 14  1  0  0  0  0
 14 15  2  0  0  0  0
 14 16  1  0  0  0  0
 16 17  1  0  0  0  0
 17 18  1  0  0  0  0
 18 19  2  0  0  0  0
 19 20  1  0  0  0  0
 20 21  2  0  0  0  0
 21 22  1  0  0  0  0
 22 23  2  0  0  0  0
 23 24  1  0  0  0  0
 23 25  1  0  0  0  0
 25 26  2  0  0  0  0
 20 26  1  0  0  0  0
 26 27  1  0  0  0  0
 18 27  1  0  0  0  0
 16 28  1  0  0  0  0
 28 29  1  0  0  0  0
 28 30  1  0  0  0  0
 10 31  1  0  0  0  0
 31 32  1  0  0  0  0
 31 33  2  0  0  0  0
 31 34  2  0  0  0  0
M  END
> <ID>
CPD_1360

$$$$
CPD_1365
  Mrv1822 09091914012D          

 31 33  0  0  0  0            999 V2000
    3.3565   -2.1307    0.0000 C   0  0  0  0  0  0  0  0  0  0  0  0
    3.3565   -1.3057    0.0000 C   0  0  0  0  0  0  0  0  0  0  0  0
    4.0709   -0.8932    0.0000 O   0  0  0  0  0  0  0  0  0  0  0  0
    4.0709   -0.0682    0.0000 C   0  0  0  0  0  0  0  0  0  0  0  0
    3.3565    0.3443    0.0000 O   0  0  0  0  0  0  0  0  0  0  0  0
    4.7854    0.3443    0.0000 C   0  0  0  0  0  0  0  0  0  0  0  0
    5.4999   -0.0682    0.0000 C   0  0  0  0  0  0  0  0  0  0  0  0
    6.2144    0.3443    0.0000 O   0  0  0  0  0  0  0  0  0  0  0  0
    5.4999   -0.8932    0.0000 N   0  0  0  0  0  0  0  0  0  0  0  0
    4.7854   -1.3057    0.0000 C   0  0  0  0  0  0  0  0  0  0  0  0
    4.7854   -2.1307    0.0000 C   0  0  0  0  0  0  0  0  0  0  0  0
    5.4529   -2.6156    0.0000 N   0  0  0  0  0  0  0  0  0  0  0  0
    5.1979   -3.4003    0.0000 C   0  0  0  0  0  0  0  0  0  0  0  0
    5.6104   -4.1147    0.0000 C   0  0  0  0  0  0  0  0  0  0  0  0
    5.1979   -4.8292    0.0000 C   0  0  0  0  0  0  0  0  0  0  0  0
    4.3729   -4.8292    0.0000 C   0  0  0  0  0  0  0  0  0  0  0  0
    3.9604   -5.5437    0.0000 Cl  0  0  0  0  0  0  0  0  0  0  0  0
    3.9604   -4.1147    0.0000 C   0  0  0  0  0  0  0  0  0  0  0  0
    4.3729   -3.4003    0.0000 C   0  0  0  0  0  0  0  0  0  0  0  0
    4.1180   -2.6156    0.0000 N   0  0  0  0  0  0  0  0  0  0  0  0
    6.2144   -1.3057    0.0000 C   0  0  0  0  0  0  0  0  0  0  0  0
    6.9288   -0.8932    0.0000 C   0  0  0  0  0  0  0  0  0  0  0  0
    6.2144   -2.1307    0.0000 C   0  0  0  0  0  0  0  0  0  0  0  0
    4.7854    1.1693    0.0000 C   0  0  0  0  0  0  0  0  0  0  0  0
    4.0709    1.5818    0.0000 C   0  0  0  0  0  0  0  0  0  0  0  0
    4.0709    2.4068    0.0000 C   0  0  0  0  0  0  0  0  0  0  0  0
    4.7854    2.8193    0.0000 C   0  0  0  0  0  0  0  0  0  0  0  0
    4.7854    3.6443    0.0000 O   0  0  0  0  0  0  0  0  0  0  0  0
    4.0709    4.0568    0.0000 C   0  0  0  0  0  0  0  0  0  0  0  0
    5.4999    2.4068    0.0000 N   0  0  0  0  0  0  0  0  0  0  0  0
    5.4999    1.5818    0.0000 C   0  0  0  0  0  0  0  0  0  0  0  0
  1  2  1  0  0  0  0
  2  3  1  0  0  0  0
  3  4  1  0  0  0  0
  4  5  2  0  0  0  0
  4  6  1  0  0  0  0
  6  7  1  0  0  0  0
  7  8  2  0  0  0  0
  7  9  1  0  0  0  0
  9 10  1  0  0  0  0
 10 11  1  0  0  0  0
 11 12  2  0  0  0  0
 12 13  1  0  0  0  0
 13 14  2  0  0  0  0
 14 15  1  0  0  0  0
 15 16  2  0  0  0  0
 16 17  1  0  0  0  0
 16 18  1  0  0  0  0
 18 19  2  0  0  0  0
 13 19  1  0  0  0  0
 19 20  1  0  0  0  0
 11 20  1  0  0  0  0
  9 21  1  0  0  0  0
 21 22  1  0  0  0  0
 21 23  1  0  0  0  0
  6 24  1  0  0  0  0
 24 25  2  0  0  0  0
 25 26  1  0  0  0  0
 26 27  2  0  0  0  0
 27 28  1  0  0  0  0
 28 29  1  0  0  0  0
 27 30  1  0  0  0  0
 30 31  2  0  0  0  0
 24 31  1  0  0  0  0
M  END
> <ID>
CPD_1365

$$$$
CPD_1370
  Mrv1822 09091914012D          

 18 19  0  0  0  0            999 V2000
   -1.8212    0.7310    0.0000 C   0  0  0  0  0  0  0  0  0  0  0  0
   -1.4087    0.0165    0.0000 C   0  0  0  0  0  0  0  0  0  0  0  0
   -1.8212   -0.6979    0.0000 C   0  0  0  0  0  0  0  0  0  0  0  0
   -0.5837    0.0165    0.0000 N   0  0  0  0  0  0  0  0  0  0  0  0
   -0.1712   -0.6979    0.0000 C   0  0  0  0  0  0  0  0  0  0  0  0
    0.6538   -0.6979    0.0000 C   0  0  0  0  0  0  0  0  0  0  0  0
    1.1387   -0.0305    0.0000 N   0  0  0  0  0  0  0  0  0  0  0  0
    1.9233   -0.2854    0.0000 C   0  0  0  0  0  0  0  0  0  0  0  0
    2.6378    0.1271    0.0000 C   0  0  0  0  0  0  0  0  0  0  0  0
    3.3523   -0.2854    0.0000 C   0  0  0  0  0  0  0  0  0  0  0  0
    3.3523   -1.1104    0.0000 C   0  0  0  0  0  0  0  0  0  0  0  0
    4.0668   -1.5229    0.0000 Cl  0  0  0  0  0  0  0  0  0  0  0  0
    2.6378   -1.5229    0.0000 C   0  0  0  0  0  0  0  0  0  0  0  0
    1.9233   -1.1104    0.0000 C   0  0  0  0  0  0  0  0  0  0  0  0
    1.1387   -1.3654    0.0000 N   0  0  0  0  0  0  0  0  0  0  0  0
   -0.1712    0.7310    0.0000 C   0  0  0  0  0  0  0  0  0  0  0  0
    0.6538    0.7310    0.0000 C   0  0  0  0  0  0  0  0  0  0  0  0
   -0.5837    1.4455    0.0000 O   0  0  0  0  0  0  0  0  0  0  0  0
  1  2  1  0  0  0  0
  2  3  1  0  0  0  0
  2  4  1  0  0  0  0
  4  5  1  0  0  0  0
  5  6  1  0  0  0  0
  6  7  2  0  0  0  0
  7  8  1  0  0  0  0
  8  9  2  0  0  0  0
  9 10  1  0  0  0  0
 10 11  2  0  0  0  0
 11 12  1  0  0  0  0
 11 13  1  0  0  0  0
 13 14  2  0  0  0  0
  8 14  1  0  0  0  0
 14 15  1  0  0  0  0
  6 15  1  0  0  0  0
  4 16  1  0  0  0  0
 16 17  1  0  0  0  0
 16 18  2  0  0  0  0
M  END
> <ID>
CPD_1370

$$$$
CPD_1375
  Mrv1822 09091914012D          

 25 27  0  0  0  0            999 V2000
   -3.2284    0.4829    0.0000 C   0  0  0  0  0  0  0  0  0  0  0  0
   -2.4532    0.2007    0.0000 C   0  0  0  0  0  0  0  0  0  0  0  0
   -1.8212    0.7310    0.0000 C   0  0  0  0  0  0  0  0  0  0  0  0
   -1.0460    1.0132    0.0000 C   0  0  0  0  0  0  0  0  0  0  0  0
   -0.9027    1.8256    0.0000 C   0  0  0  0  0  0  0  0  0  0  0  0
   -1.5347    2.3559    0.0000 C   0  0  0  0  0  0  0  0  0  0  0  0
   -2.3099    2.0738    0.0000 N   0  0  0  0  0  0  0  0  0  0  0  0
   -2.4532    1.2613    0.0000 C   0  0  0  0  0  0  0  0  0  0  0  0
   -1.4087    0.0165    0.0000 C   0  0  0  0  0  0  0  0  0  0  0  0
   -1.8212   -0.6979    0.0000 O   0  0  0  0  0  0  0  0  0  0  0  0
   -0.5837    0.0165    0.0000 N   0  0  0  0  0  0  0  0  0  0  0  0
   -0.1712   -0.6979    0.0000 C   0  0  0  0  0  0  0  0  0  0  0  0
    0.6538   -0.6979    0.0000 C   0  0  0  0  0  0  0  0  0  0  0  0
    1.1387   -0.0305    0.0000 N   0  0  0  0  0  0  0  0  0  0  0  0
    1.9233   -0.2854    0.0000 C   0  0  0  0  0  0  0  0  0  0  0  0
    2.6378    0.1271    0.0000 C   0  0  0  0  0  0  0  0  0  0  0  0
    3.3523   -0.2854    0.0000 C   0  0  0  0  0  0  0  0  0  0  0  0
    3.3523   -1.1104    0.0000 C   0  0  0  0  0  0  0  0  0  0  0  0
    4.0668   -1.5229    0.0000 Cl  0  0  0  0  0  0  0  0  0  0  0  0
    2.6378   -1.5229    0.0000 C   0  0  0  0  0  0  0  0  0  0  0  0
    1.9233   -1.1104    0.0000 C   0  0  0  0  0  0  0  0  0  0  0  0
    1.1387   -1.3654    0.0000 N   0  0  0  0  0  0  0  0  0  0  0  0
   -0.1712    0.7310    0.0000 C   0  0  0  0  0  0  0  0  0  0  0  0
    0.6538    0.7310    0.0000 C   0  0  0  0  0  0  0  0  0  0  0  0
   -0.5837    1.4455    0.0000 C   0  0  0  0  0  0  0  0  0  0  0  0
  1  2  1  0  0  0  0
  2  3  1  0  0  0  0
  3  4  1  0  0  0  0
  4  5  1  0  0  0  0
  5  6  1  0  0  0  0
  6  7  1  0  0  0  0
  7  8  1  0  0  0  0
  3  8  1  0  0  0  0
  3  9  1  0  0  0  0
  9 10  2  0  0  0  0
  9 11  1  0  0  0  0
 11 12  1  0  0  0  0
 12 13  1  0  0  0  0
 13 14  2  0  0  0  0
 14 15  1  0  0  0  0
 15 16  2  0  0  0  0
 16 17  1  0  0  0  0
 17 18  2  0  0  0  0
 18 19  1  0  0  0  0
 18 20  1  0  0  0  0
 20 21  2  0  0  0  0
 15 21  1  0  0  0  0
 21 22  1  0  0  0  0
 13 22  1  0  0  0  0
 11 23  1  0  0  0  0
 23 24  1  0  0  0  0
 23 25  1  0  0  0  0
M  END
> <ID>
CPD_1375

$$$$
CPD_1380
  Mrv1822 09091914012D          

 26 27  0  0  0  0            999 V2000
    0.0000   -4.9500    0.0000 C   0  0  0  0  0  0  0  0  0  0  0  0
    0.0000   -4.1250    0.0000 C   0  0  0  0  0  0  0  0  0  0  0  0
   -0.7145   -3.7125    0.0000 N   0  0  0  0  0  0  0  0  0  0  0  0
   -0.7145   -2.8875    0.0000 C   0  0  0  0  0  0  0  0  0  0  0  0
    0.0000   -2.4750    0.0000 C   0  0  0  0  0  0  0  0  0  0  0  0
    0.0000   -1.6500    0.0000 Cl  0  0  0  0  0  0  0  0  0  0  0  0
    0.7145   -2.8875    0.0000 C   0  0  0  0  0  0  0  0  0  0  0  0
    0.7145   -3.7125    0.0000 C   0  0  0  0  0  0  0  0  0  0  0  0
    1.4289   -4.1250    0.0000 C   0  0  0  0  0  0  0  0  0  0  0  0
    1.4289   -4.9500    0.0000 O   0  0  0  0  0  0  0  0  0  0  0  0
    2.1434   -3.7125    0.0000 N   0  0  0  0  0  0  0  0  0  0  0  0
    2.8579   -4.1250    0.0000 C   0  0  0  0  0  0  0  0  0  0  0  0
    3.5724   -3.7125    0.0000 C   0  0  0  0  0  0  0  0  0  0  0  0
    4.2868   -4.1250    0.0000 C   0  0  0  0  0  0  0  0  0  0  0  0
    5.0013   -3.7125    0.0000 O   0  0  0  0  0  0  0  0  0  0  0  0
    5.7158   -4.1250    0.0000 C   0  0  0  0  0  0  0  0  0  0  0  0
    6.4302   -3.7125    0.0000 C   0  0  0  0  0  0  0  0  0  0  0  0
    6.4302   -2.8875    0.0000 F   0  0  0  0  0  0  0  0  0  0  0  0
    7.1447   -4.1250    0.0000 C   0  0  0  0  0  0  0  0  0  0  0  0
    7.8592   -3.7125    0.0000 F   0  0  0  0  0  0  0  0  0  0  0  0
    7.1447   -4.9500    0.0000 C   0  0  0  0  0  0  0  0  0  0  0  0
    7.8592   -5.3625    0.0000 F   0  0  0  0  0  0  0  0  0  0  0  0
    6.4302   -5.3625    0.0000 C   0  0  0  0  0  0  0  0  0  0  0  0
    6.4302   -6.1875    0.0000 F   0  0  0  0  0  0  0  0  0  0  0  0
    5.7158   -4.9500    0.0000 C   0  0  0  0  0  0  0  0  0  0  0  0
    5.0013   -5.3625    0.0000 F   0  0  0  0  0  0  0  0  0  0  0  0
  1  2  1  0  0  0  0
  2  3  2  0  0  0  0
  3  4  1  0  0  0  0
  4  5  2  0  0  0  0
  5  6  1  0  0  0  0
  5  7  1  0  0  0  0
  7  8  2  0  0  0  0
  2  8  1  0  0  0  0
  8  9  1  0  0  0  0
  9 10  2  0  0  0  0
  9 11  1  0  0  0  0
 11 12  1  0  0  0  0
 12 13  1  0  0  0  0
 13 14  1  0  0  0  0
 14 15  1  0  0  0  0
 15 16  1  0  0  0  0
 16 17  2  0  0  0  0
 17 18  1  0  0  0  0
 17 19  1  0  0  0  0
 19 20  1  0  0  0  0
 19 21  2  0  0  0  0
 21 22  1  0  0  0  0
 21 23  1  0  0  0  0
 23 24  1  0  0  0  0
 23 25  2  0  0  0  0
 16 25  1  0  0  0  0
 25 26  1  0  0  0  0
M  END
> <ID>
CPD_1380

$$$$
CPD_1385
  Mrv1822 09091914012D          

 31 33  0  0  0  0            999 V2000
   -3.5724   -1.2375    0.0000 C   0  0  0  0  0  0  0  0  0  0  0  0
   -2.8579   -1.6500    0.0000 N   0  0  0  0  0  0  0  0  0  0  0  0
   -2.1434   -1.2375    0.0000 C   0  0  0  0  0  0  0  0  0  0  0  0
   -1.4289   -1.6500    0.0000 C   0  0  0  0  0  0  0  0  0  0  0  0
   -1.4289   -2.4750    0.0000 N   0  0  0  0  0  0  0  0  0  0  0  0
   -2.1434   -2.8875    0.0000 C   0  0  0  0  0  0  0  0  0  0  0  0
   -2.8579   -2.4750    0.0000 C   0  0  0  0  0  0  0  0  0  0  0  0
   -0.7145   -2.8875    0.0000 C   0  0  0  0  0  0  0  0  0  0  0  0
    0.0000   -2.4750    0.0000 C   0  0  0  0  0  0  0  0  0  0  0  0
    0.7145   -2.8875    0.0000 C   0  0  0  0  0  0  0  0  0  0  0  0
    0.7145   -3.7125    0.0000 C   0  0  0  0  0  0  0  0  0  0  0  0
    0.0000   -4.1250    0.0000 C   0  0  0  0  0  0  0  0  0  0  0  0
   -0.7145   -3.7125    0.0000 C   0  0  0  0  0  0  0  0  0  0  0  0
    1.4289   -4.1250    0.0000 C   0  0  0  0  0  0  0  0  0  0  0  0
    1.4289   -4.9500    0.0000 O   0  0  0  0  0  0  0  0  0  0  0  0
    2.1434   -3.7125    0.0000 N   0  0  0  0  0  0  0  0  0  0  0  0
    2.8579   -4.1250    0.0000 C   0  0  0  0  0  0  0  0  0  0  0  0
    3.5724   -3.7125    0.0000 C   0  0  0  0  0  0  0  0  0  0  0  0
    4.2868   -4.1250    0.0000 C   0  0  0  0  0  0  0  0  0  0  0  0
    5.0013   -3.7125    0.0000 O   0  0  0  0  0  0  0  0  0  0  0  0
    5.7158   -4.1250    0.0000 C   0  0  0  0  0  0  0  0  0  0  0  0
    6.4302   -3.7125    0.0000 C   0  0  0  0  0  0  0  0  0  0  0  0
    6.4302   -2.8875    0.0000 F   0  0  0  0  0  0  0  0  0  0  0  0
    7.1447   -4.1250    0.0000 C   0  0  0  0  0  0  0  0  0  0  0  0
    7.8592   -3.7125    0.0000 F   0  0  0  0  0  0  0  0  0  0  0  0
    7.1447   -4.9500    0.0000 C   0  0  0  0  0  0  0  0  0  0  0  0
    7.8592   -5.3625    0.0000 F   0  0  0  0  0  0  0  0  0  0  0  0
    6.4302   -5.3625    0.0000 C   0  0  0  0  0  0  0  0  0  0  0  0
    6.4302   -6.1875    0.0000 F   0  0  0  0  0  0  0  0  0  0  0  0
    5.7158   -4.9500    0.0000 C   0  0  0  0  0  0  0  0  0  0  0  0
    5.0013   -5.3625    0.0000 F   0  0  0  0  0  0  0  0  0  0  0  0
  1  2  1  0  0  0  0
  2  3  1  0  0  0  0
  3  4  1  0  0  0  0
  4  5  1  0  0  0  0
  5  6  1  0  0  0  0
  6  7  1  0  0  0  0
  2  7  1  0  0  0  0
  5  8  1  0  0  0  0
  8  9  2  0  0  0  0
  9 10  1  0  0  0  0
 10 11  2  0  0  0  0
 11 12  1  0  0  0  0
 12 13  2  0  0  0  0
  8 13  1  0  0  0  0
 11 14  1  0  0  0  0
 14 15  2  0  0  0  0
 14 16  1  0  0  0  0
 16 17  1  0  0  0  0
 17 18  1  0  0  0  0
 18 19  1  0  0  0  0
 19 20  1  0  0  0  0
 20 21  1  0  0  0  0
 21 22  2  0  0  0  0
 22 23  1  0  0  0  0
 22 24  1  0  0  0  0
 24 25  1  0  0  0  0
 24 26  2  0  0  0  0
 26 27  1  0  0  0  0
 26 28  1  0  0  0  0
 28 29  1  0  0  0  0
 28 30  2  0  0  0  0
 21 30  1  0  0  0  0
 30 31  1  0  0  0  0
M  END
> <ID>
CPD_1385

$$$$
CPD_1390
  Mrv1822 09091914012D          

 27 29  0  0  0  0            999 V2000
    0.7145   -6.1875    0.0000 C   0  0  0  0  0  0  0  0  0  0  0  0
    1.4289   -6.6000    0.0000 C   0  0  0  0  0  0  0  0  0  0  0  0
    2.1434   -6.1875    0.0000 C   0  0  0  0  0  0  0  0  0  0  0  0
    2.8579   -6.6000    0.0000 C   0  0  0  0  0  0  0  0  0  0  0  0
    3.5724   -6.1875    0.0000 O   0  0  0  0  0  0  0  0  0  0  0  0
    4.2868   -6.6000    0.0000 C   0  0  0  0  0  0  0  0  0  0  0  0
    5.0013   -6.1875    0.0000 C   0  0  0  0  0  0  0  0  0  0  0  0
    5.7158   -6.6000    0.0000 C   0  0  0  0  0  0  0  0  0  0  0  0
    6.4302   -6.1875    0.0000 F   0  0  0  0  0  0  0  0  0  0  0  0
    5.7158   -7.4250    0.0000 C   0  0  0  0  0  0  0  0  0  0  0  0
    6.4302   -7.8375    0.0000 N   0  0  0  0  0  0  0  0  0  0  0  0
    7.1447   -7.4250    0.0000 C   0  0  0  0  0  0  0  0  0  0  0  0
    7.1447   -6.6000    0.0000 O   0  0  0  0  0  0  0  0  0  0  0  0
    7.8592   -7.8375    0.0000 C   0  0  0  0  0  0  0  0  0  0  0  0
    8.5737   -7.4250    0.0000 C   0  0  0  0  0  0  0  0  0  0  0  0
    9.2881   -7.8375    0.0000 N   0  0  0  0  0  0  0  0  0  0  0  0
    9.2881   -8.6625    0.0000 C   0  0  0  0  0  0  0  0  0  0  0  0
    8.5737   -9.0750    0.0000 C   0  0  0  0  0  0  0  0  0  0  0  0
    7.8592   -8.6625    0.0000 C   0  0  0  0  0  0  0  0  0  0  0  0
   10.0026   -9.0750    0.0000 C   0  0  0  0  0  0  0  0  0  0  0  0
   10.7563   -8.7394    0.0000 C   0  0  0  0  0  0  0  0  0  0  0  0
   11.3083   -9.3525    0.0000 C   0  0  0  0  0  0  0  0  0  0  0  0
   10.8958  -10.0670    0.0000 C   0  0  0  0  0  0  0  0  0  0  0  0
   10.0888   -9.8955    0.0000 S   0  0  0  0  0  0  0  0  0  0  0  0
    5.0013   -7.8375    0.0000 C   0  0  0  0  0  0  0  0  0  0  0  0
    5.0013   -8.6625    0.0000 F   0  0  0  0  0  0  0  0  0  0  0  0
    4.2868   -7.4250    0.0000 C   0  0  0  0  0  0  0  0  0  0  0  0
  1  2  1  0  0  0  0
  2  3  1  0  0  0  0
  3  4  1  0  0  0  0
  4  5  1  0  0  0  0
  5  6  1  0  0  0  0
  6  7  2  0  0  0  0
  7  8  1  0  0  0  0
  8  9  1  0  0  0  0
  8 10  2  0  0  0  0
 10 11  1  0  0  0  0
 11 12  1  0  0  0  0
 12 13  2  0  0  0  0
 12 14  1  0  0  0  0
 14 15  2  0  0  0  0
 15 16  1  0  0  0  0
 16 17  2  0  0  0  0
 17 18  1  0  0  0  0
 18 19  2  0  0  0  0
 14 19  1  0  0  0  0
 17 20  1  0  0  0  0
 20 21  2  0  0  0  0
 21 22  1  0  0  0  0
 22 23  2  0  0  0  0
 23 24  1  0  0  0  0
 20 24  1  0  0  0  0
 10 25  1  0  0  0  0
 25 26  1  0  0  0  0
 25 27  2  0  0  0  0
  6 27  1  0  0  0  0
M  END
> <ID>
CPD_1390

$$$$
CPD_1395
  Mrv1822 09091914012D          

 30 31  0  0  0  0            999 V2000
    1.4289   -8.2500    0.0000 C   0  0  0  0  0  0  0  0  0  0  0  0
    2.1434   -8.6625    0.0000 C   0  0  0  0  0  0  0  0  0  0  0  0
    2.8579   -8.2500    0.0000 C   0  0  0  0  0  0  0  0  0  0  0  0
    3.5724   -8.6625    0.0000 C   0  0  0  0  0  0  0  0  0  0  0  0
    4.2868   -8.2500    0.0000 O   0  0  0  0  0  0  0  0  0  0  0  0
    5.0013   -8.6625    0.0000 C   0  0  0  0  0  0  0  0  0  0  0  0
    5.7158   -8.2500    0.0000 C   0  0  0  0  0  0  0  0  0  0  0  0
    6.4302   -8.6625    0.0000 C   0  0  0  0  0  0  0  0  0  0  0  0
    7.1447   -8.2500    0.0000 F   0  0  0  0  0  0  0  0  0  0  0  0
    6.4302   -9.4875    0.0000 C   0  0  0  0  0  0  0  0  0  0  0  0
    7.1447   -9.9000    0.0000 N   0  0  0  0  0  0  0  0  0  0  0  0
    7.8592   -9.4875    0.0000 C   0  0  0  0  0  0  0  0  0  0  0  0
    7.8592   -8.6625    0.0000 O   0  0  0  0  0  0  0  0  0  0  0  0
    8.5737   -9.9000    0.0000 C   0  0  0  0  0  0  0  0  0  0  0  0
    8.5737  -10.7250    0.0000 C   0  0  0  0  0  0  0  0  0  0  0  0
    9.2881   -9.4875    0.0000 N   0  0  0  0  0  0  0  0  0  0  0  0
   10.0026   -9.9000    0.0000 S   0  0  0  0  0  0  0  0  0  0  0  0
    9.5901  -10.6145    0.0000 O   0  0  0  0  0  0  0  0  0  0  0  0
   10.4151   -9.1855    0.0000 O   0  0  0  0  0  0  0  0  0  0  0  0
   10.7171  -10.3125    0.0000 C   0  0  0  0  0  0  0  0  0  0  0  0
   11.4315   -9.9000    0.0000 C   0  0  0  0  0  0  0  0  0  0  0  0
   11.4315   -9.0750    0.0000 C   0  0  0  0  0  0  0  0  0  0  0  0
   12.1460  -10.3125    0.0000 C   0  0  0  0  0  0  0  0  0  0  0  0
   12.1460  -11.1375    0.0000 C   0  0  0  0  0  0  0  0  0  0  0  0
   11.4315  -11.5500    0.0000 C   0  0  0  0  0  0  0  0  0  0  0  0
   11.4315  -12.3750    0.0000 C   0  0  0  0  0  0  0  0  0  0  0  0
   10.7171  -11.1375    0.0000 C   0  0  0  0  0  0  0  0  0  0  0  0
    5.7158   -9.9000    0.0000 C   0  0  0  0  0  0  0  0  0  0  0  0
    5.7158  -10.7250    0.0000 F   0  0  0  0  0  0  0  0  0  0  0  0
    5.0013   -9.4875    0.0000 C   0  0  0  0  0  0  0  0  0  0  0  0
  1  2  1  0  0  0  0
  2  3  1  0  0  0  0
  3  4  1  0  0  0  0
  4  5  1  0  0  0  0
  5  6  1  0  0  0  0
  6  7  2  0  0  0  0
  7  8  1  0  0  0  0
  8  9  1  0  0  0  0
  8 10  2  0  0  0  0
 10 11  1  0  0  0  0
 11 12  1  0  0  0  0
 12 13  2  0  0  0  0
 12 14  1  0  0  0  0
 14 15  1  0  0  0  0
 14 16  1  0  0  0  0
 16 17  1  0  0  0  0
 17 18  2  0  0  0  0
 17 19  2  0  0  0  0
 17 20  1  0  0  0  0
 20 21  2  0  0  0  0
 21 22  1  0  0  0  0
 21 23  1  0  0  0  0
 23 24  2  0  0  0  0
 24 25  1  0  0  0  0
 25 26  1  0  0  0  0
 25 27  2  0  0  0  0
 20 27  1  0  0  0  0
 10 28  1  0  0  0  0
 28 29  1  0  0  0  0
 28 30  2  0  0  0  0
  6 30  1  0  0  0  0
M  END
> <ID>
CPD_1395

$$$$
CPD_1400
  Mrv1822 09091914012D          

 26 27  0  0  1  0            999 V2000
   -1.4289   -3.3000    0.0000 C   0  0  0  0  0  0  0  0  0  0  0  0
   -0.7145   -2.8875    0.0000 C   0  0  0  0  0  0  0  0  0  0  0  0
   -0.7145   -2.0625    0.0000 C   0  0  0  0  0  0  0  0  0  0  0  0
   -1.4289   -1.6500    0.0000 C   0  0  0  0  0  0  0  0  0  0  0  0
   -1.4289   -0.8250    0.0000 C   0  0  0  0  0  0  0  0  0  0  0  0
   -2.1434   -0.4125    0.0000 N   0  0  0  0  0  0  0  0  0  0  0  0
   -2.8579   -0.8250    0.0000 C   0  0  0  0  0  0  0  0  0  0  0  0
   -3.5724   -0.4125    0.0000 O   0  0  0  0  0  0  0  0  0  0  0  0
   -2.8579   -1.6500    0.0000 C   0  0  2  0  0  0  0  0  0  0  0  0
   -2.1904   -2.1349    0.0000 C   0  0  0  0  0  0  0  0  0  0  0  0
   -2.4454   -2.9195    0.0000 C   0  0  0  0  0  0  0  0  0  0  0  0
   -3.2704   -2.9195    0.0000 C   0  0  0  0  0  0  0  0  0  0  0  0
   -3.5253   -2.1349    0.0000 C   0  0  2  0  0  0  0  0  0  0  0  0
   -4.3099   -1.8800    0.0000 N   0  0  0  0  0  0  0  0  0  0  0  0
   -0.7145   -0.4125    0.0000 C   0  0  0  0  0  0  0  0  0  0  0  0
   -0.0000   -0.8250    0.0000 O   0  0  0  0  0  0  0  0  0  0  0  0
   -0.7145    0.4125    0.0000 O   0  0  0  0  0  0  0  0  0  0  0  0
   -0.0000   -1.6500    0.0000 C   0  0  0  0  0  0  0  0  0  0  0  0
    0.7145   -2.0625    0.0000 C   0  0  0  0  0  0  0  0  0  0  0  0
    1.4289   -1.6500    0.0000 O   0  0  0  0  0  0  0  0  0  0  0  0
    1.4289   -0.8250    0.0000 C   0  0  0  0  0  0  0  0  0  0  0  0
    1.4289    0.0000    0.0000 F   0  0  0  0  0  0  0  0  0  0  0  0
    2.2539   -0.8250    0.0000 F   0  0  0  0  0  0  0  0  0  0  0  0
    0.6039   -0.8250    0.0000 F   0  0  0  0  0  0  0  0  0  0  0  0
    0.7145   -2.8875    0.0000 C   0  0  0  0  0  0  0  0  0  0  0  0
    0.0000   -3.3000    0.0000 C   0  0  0  0  0  0  0  0  0  0  0  0
  1  2  1  0  0  0  0
  2  3  2  0  0  0  0
  3  4  1  0  0  0  0
  4  5  1  0  0  0  0
  5  6  1  0  0  0  0
  6  7  1  0  0  0  0
  7  8  2  0  0  0  0
  9  7  1  6  0  0  0
  9 10  1  0  0  0  0
 10 11  1  0  0  0  0
 11 12  2  0  0  0  0
 13 12  1  0  0  0  0
  9 13  1  0  0  0  0
 13 14  1  6  0  0  0
  5 15  1  0  0  0  0
 15 16  1  0  0  0  0
 15 17  2  0  0  0  0
  3 18  1  0  0  0  0
 18 19  2  0  0  0  0
 19 20  1  0  0  0  0
 20 21  1  0  0  0  0
 21 22  1  0  0  0  0
 21 23  1  0  0  0  0
 21 24  1  0  0  0  0
 19 25  1  0  0  0  0
 25 26  2  0  0  0  0
  2 26  1  0  0  0  0
M  END
> <ID>
CPD_1400

$$$$
CPD_1405
  Mrv1822 09091914012D          

 27 28  0  0  0  0            999 V2000
    0.0000   -1.0461    0.0000 C   0  0  0  0  0  0  0  0  0  0  0  0
   -0.4125   -1.7605    0.0000 C   0  0  0  0  0  0  0  0  0  0  0  0
   -1.2375   -1.7605    0.0000 O   0  0  0  0  0  0  0  0  0  0  0  0
    0.0000   -2.4750    0.0000 C   0  0  0  0  0  0  0  0  0  0  0  0
    0.4125   -3.1895    0.0000 C   0  0  0  0  0  0  0  0  0  0  0  0
   -0.3020   -3.6020    0.0000 C   0  0  0  0  0  0  0  0  0  0  0  0
   -0.7145   -2.8875    0.0000 C   0  0  0  0  0  0  0  0  0  0  0  0
    0.7145   -2.0625    0.0000 C   0  0  0  0  0  0  0  0  0  0  0  0
    0.7145   -1.2375    0.0000 O   0  0  0  0  0  0  0  0  0  0  0  0
    1.4289   -2.4750    0.0000 N   0  0  0  0  0  0  0  0  0  0  0  0
    2.1434   -2.0625    0.0000 C   0  0  0  0  0  0  0  0  0  0  0  0
    2.1434   -1.2375    0.0000 C   0  0  0  0  0  0  0  0  0  0  0  0
    2.8579   -0.8250    0.0000 C   0  0  0  0  0  0  0  0  0  0  0  0
    2.8579    0.0000    0.0000 C   0  0  0  0  0  0  0  0  0  0  0  0
    2.1434    0.4125    0.0000 C   0  0  0  0  0  0  0  0  0  0  0  0
    3.5724    0.4125    0.0000 C   0  0  0  0  0  0  0  0  0  0  0  0
    4.2868    0.0000    0.0000 C   0  0  0  0  0  0  0  0  0  0  0  0
    4.2868   -0.8250    0.0000 C   0  0  0  0  0  0  0  0  0  0  0  0
    5.0013   -1.2375    0.0000 O   0  0  0  0  0  0  0  0  0  0  0  0
    5.7158   -0.8250    0.0000 C   0  0  0  0  0  0  0  0  0  0  0  0
    6.4302   -0.4125    0.0000 F   0  0  0  0  0  0  0  0  0  0  0  0
    6.1283   -1.5395    0.0000 F   0  0  0  0  0  0  0  0  0  0  0  0
    5.3033   -0.1105    0.0000 F   0  0  0  0  0  0  0  0  0  0  0  0
    3.5724   -1.2375    0.0000 C   0  0  0  0  0  0  0  0  0  0  0  0
    2.8579   -2.4750    0.0000 C   0  0  0  0  0  0  0  0  0  0  0  0
    2.8579   -3.3000    0.0000 O   0  0  0  0  0  0  0  0  0  0  0  0
    3.5724   -2.0625    0.0000 O   0  0  0  0  0  0  0  0  0  0  0  0
  1  2  1  0  0  0  0
  2  3  2  0  0  0  0
  2  4  1  0  0  0  0
  4  5  1  0  0  0  0
  5  6  1  0  0  0  0
  6  7  1  0  0  0  0
  4  7  1  0  0  0  0
  4  8  1  0  0  0  0
  8  9  2  0  0  0  0
  8 10  1  0  0  0  0
 10 11  1  0  0  0  0
 11 12  1  0  0  0  0
 12 13  1  0  0  0  0
 13 14  2  0  0  0  0
 14 15  1  0  0  0  0
 14 16  1  0  0  0  0
 16 17  2  0  0  0  0
 17 18  1  0  0  0  0
 18 19  1  0  0  0  0
 19 20  1  0  0  0  0
 20 21  1  0  0  0  0
 20 22  1  0  0  0  0
 20 23  1  0  0  0  0
 18 24  2  0  0  0  0
 13 24  1  0  0  0  0
 11 25  1  0  0  0  0
 25 26  1  0  0  0  0
 25 27  2  0  0  0  0
M  END
> <ID>
CPD_1405

$$$$
CPD_1410
  Mrv1822 09091914012D          

 19 19  0  0  0  0            999 V2000
    0.5678    5.2393    0.0000 C   0  0  0  0  0  0  0  0  0  0  0  0
    0.5678    4.4143    0.0000 O   0  0  0  0  0  0  0  0  0  0  0  0
    1.2822    4.0018    0.0000 C   0  0  0  0  0  0  0  0  0  0  0  0
    1.9967    4.4143    0.0000 O   0  0  0  0  0  0  0  0  0  0  0  0
    1.2822    3.1768    0.0000 C   0  0  0  0  0  0  0  0  0  0  0  0
    0.4572    3.1768    0.0000 C   0  0  0  0  0  0  0  0  0  0  0  0
    1.2822    2.3518    0.0000 N   0  0  0  0  0  0  0  0  0  0  0  0
    0.5678    1.9393    0.0000 C   0  0  0  0  0  0  0  0  0  0  0  0
   -0.1467    2.3518    0.0000 O   0  0  0  0  0  0  0  0  0  0  0  0
    0.5678    1.1143    0.0000 C   0  0  0  0  0  0  0  0  0  0  0  0
    1.2352    0.6294    0.0000 N   0  0  0  0  0  0  0  0  0  0  0  0
    0.9803   -0.1553    0.0000 N   0  0  0  0  0  0  0  0  0  0  0  0
    0.1553   -0.1553    0.0000 C   0  0  0  0  0  0  0  0  0  0  0  0
   -0.3297   -0.8227    0.0000 C   0  0  0  0  0  0  0  0  0  0  0  0
   -0.0997    0.6294    0.0000 S   0  0  0  0  0  0  0  0  0  0  0  0
    2.1072    3.1768    0.0000 C   0  0  0  0  0  0  0  0  0  0  0  0
    2.9322    3.1768    0.0000 F   0  0  0  0  0  0  0  0  0  0  0  0
    2.1072    2.3518    0.0000 F   0  0  0  0  0  0  0  0  0  0  0  0
    2.1072    4.0018    0.0000 F   0  0  0  0  0  0  0  0  0  0  0  0
  1  2  1  0  0  0  0
  2  3  1  0  0  0  0
  3  4  2  0  0  0  0
  3  5  1  0  0  0  0
  5  6  1  0  0  0  0
  5  7  1  0  0  0  0
  7  8  1  0  0  0  0
  8  9  2  0  0  0  0
  8 10  1  0  0  0  0
 10 11  2  0  0  0  0
 11 12  1  0  0  0  0
 12 13  2  0  0  0  0
 13 14  1  0  0  0  0
 13 15  1  0  0  0  0
 10 15  1  0  0  0  0
  5 16  1  0  0  0  0
 16 17  1  0  0  0  0
 16 18  1  0  0  0  0
 16 19  1  0  0  0  0
M  END
> <ID>
CPD_1410

$$$$
CPD_1415
  Mrv1822 09091914012D          

 31 32  0  0  0  0            999 V2000
    2.8579   -0.0000    0.0000 C   0  0  0  0  0  0  0  0  0  0  0  0
    2.1434   -0.4125    0.0000 C   0  0  0  0  0  0  0  0  0  0  0  0
    1.4289   -0.0000    0.0000 N   0  0  0  0  0  0  0  0  0  0  0  0
    0.7145   -0.4125    0.0000 C   0  0  0  0  0  0  0  0  0  0  0  0
    0.0000    0.0000    0.0000 O   0  0  0  0  0  0  0  0  0  0  0  0
    0.7145   -1.2375    0.0000 C   0  0  0  0  0  0  0  0  0  0  0  0
    1.4289   -1.6500    0.0000 C   0  0  0  0  0  0  0  0  0  0  0  0
    1.4289   -2.4750    0.0000 C   0  0  0  0  0  0  0  0  0  0  0  0
    0.7145   -2.8875    0.0000 C   0  0  0  0  0  0  0  0  0  0  0  0
    0.0000   -2.4750    0.0000 C   0  0  0  0  0  0  0  0  0  0  0  0
    0.0000   -1.6500    0.0000 C   0  0  0  0  0  0  0  0  0  0  0  0
    2.1434   -2.8875    0.0000 C   0  0  0  0  0  0  0  0  0  0  0  0
    2.8579   -2.4750    0.0000 C   0  0  0  0  0  0  0  0  0  0  0  0
    3.5724   -2.8875    0.0000 C   0  0  0  0  0  0  0  0  0  0  0  0
    3.5724   -3.7125    0.0000 C   0  0  0  0  0  0  0  0  0  0  0  0
    2.8579   -4.1250    0.0000 C   0  0  0  0  0  0  0  0  0  0  0  0
    2.8579   -4.9500    0.0000 C   0  0  0  0  0  0  0  0  0  0  0  0
    3.5724   -5.3625    0.0000 O   0  0  0  0  0  0  0  0  0  0  0  0
    2.1434   -5.3625    0.0000 N   0  0  0  0  0  0  0  0  0  0  0  0
    2.1434   -6.1875    0.0000 C   0  0  0  0  0  0  0  0  0  0  0  0
    2.9684   -6.1875    0.0000 C   0  0  0  0  0  0  0  0  0  0  0  0
    1.3184   -6.1875    0.0000 C   0  0  0  0  0  0  0  0  0  0  0  0
    0.9059   -6.9020    0.0000 O   0  0  0  0  0  0  0  0  0  0  0  0
    0.9059   -5.4730    0.0000 O   0  0  0  0  0  0  0  0  0  0  0  0
    0.0809   -5.4730    0.0000 C   0  0  0  0  0  0  0  0  0  0  0  0
    2.1434   -7.0125    0.0000 C   0  0  0  0  0  0  0  0  0  0  0  0
    2.1434   -7.8375    0.0000 F   0  0  0  0  0  0  0  0  0  0  0  0
    1.3184   -7.0125    0.0000 F   0  0  0  0  0  0  0  0  0  0  0  0
    2.9684   -7.0125    0.0000 F   0  0  0  0  0  0  0  0  0  0  0  0
    2.1434   -3.7125    0.0000 C   0  0  0  0  0  0  0  0  0  0  0  0
    1.4289   -4.1250    0.0000 F   0  0  0  0  0  0  0  0  0  0  0  0
  1  2  1  0  0  0  0
  2  3  1  0  0  0  0
  3  4  1  0  0  0  0
  4  5  2  0  0  0  0
  4  6  1  0  0  0  0
  6  7  2  0  0  0  0
  7  8  1  0  0  0  0
  8  9  2  0  0  0  0
  9 10  1  0  0  0  0
 10 11  2  0  0  0  0
  6 11  1  0  0  0  0
  8 12  1  0  0  0  0
 12 13  2  0  0  0  0
 13 14  1  0  0  0  0
 14 15  2  0  0  0  0
 15 16  1  0  0  0  0
 16 17  1  0  0  0  0
 17 18  2  0  0  0  0
 17 19  1  0  0  0  0
 19 20  1  0  0  0  0
 20 21  1  0  0  0  0
 20 22  1  0  0  0  0
 22 23  2  0  0  0  0
 22 24  1  0  0  0  0
 24 25  1  0  0  0  0
 20 26  1  0  0  0  0
 26 27  1  0  0  0  0
 26 28  1  0  0  0  0
 26 29  1  0  0  0  0
 16 30  2  0  0  0  0
 12 30  1  0  0  0  0
 30 31  1  0  0  0  0
M  END
> <ID>
CPD_1415

$$$$
CPD_1420
  Mrv1822 09091914012D          

 18 17  0  0  1  0            999 V2000
   -1.2375   -1.5395    0.0000 C   0  0  0  0  0  0  0  0  0  0  0  0
   -0.4125   -1.5395    0.0000 O   0  0  0  0  0  0  0  0  0  0  0  0
    0.0000   -0.8250    0.0000 C   0  0  0  0  0  0  0  0  0  0  0  0
   -0.4125   -0.1105    0.0000 O   0  0  0  0  0  0  0  0  0  0  0  0
    0.8250   -0.8250    0.0000 C   0  0  0  0  0  0  0  0  0  0  0  0
    0.8250   -1.6500    0.0000 C   0  0  0  0  0  0  0  0  0  0  0  0
    1.6500   -0.8250    0.0000 N   0  0  0  0  0  0  0  0  0  0  0  0
    2.0625   -1.5395    0.0000 C   0  0  0  0  0  0  0  0  0  0  0  0
    1.6500   -2.2539    0.0000 O   0  0  0  0  0  0  0  0  0  0  0  0
    2.8875   -1.5395    0.0000 C   0  0  2  0  0  0  0  0  0  0  0  0
    3.3000   -0.8250    0.0000 O   0  0  0  0  0  0  0  0  0  0  0  0
    3.3000   -2.2539    0.0000 C   0  0  0  0  0  0  0  0  0  0  0  0
    4.1250   -2.2539    0.0000 C   0  0  0  0  0  0  0  0  0  0  0  0
    2.8875   -2.9684    0.0000 C   0  0  0  0  0  0  0  0  0  0  0  0
    0.8250    0.0000    0.0000 C   0  0  0  0  0  0  0  0  0  0  0  0
    0.8250    0.8250    0.0000 F   0  0  0  0  0  0  0  0  0  0  0  0
    1.6500    0.0000    0.0000 F   0  0  0  0  0  0  0  0  0  0  0  0
    0.0000    0.0000    0.0000 F   0  0  0  0  0  0  0  0  0  0  0  0
  1  2  1  0  0  0  0
  2  3  1  0  0  0  0
  3  4  2  0  0  0  0
  3  5  1  0  0  0  0
  5  6  1  0  0  0  0
  5  7  1  0  0  0  0
  7  8  1  0  0  0  0
  8  9  2  0  0  0  0
 10  8  1  0  0  0  0
 10 11  1  6  0  0  0
 10 12  1  0  0  0  0
 12 13  1  0  0  0  0
 12 14  1  0  0  0  0
  5 15  1  0  0  0  0
 15 16  1  0  0  0  0
 15 17  1  0  0  0  0
 15 18  1  0  0  0  0
M  END
> <ID>
CPD_1420

$$$$
CPD_1425
  Mrv1822 09091914012D          

 29 32  0  0  1  0            999 V2000
    4.7128   -2.7209    0.0000 H   0  0  0  0  0  0  0  0  0  0  0  0
    4.7128   -1.8959    0.0000 C   0  0  2  0  0  0  0  0  0  0  0  0
    4.5753   -1.3459    0.0000 C   0  0  0  0  0  0  0  0  0  0  0  0
    4.5753   -0.7959    0.0000 C   0  0  0  0  0  0  0  0  0  0  0  0
    4.7128   -0.2459    0.0000 N   0  0  0  0  0  0  0  0  0  0  0  0
    3.9983   -0.6584    0.0000 C   0  0  0  0  0  0  0  0  0  0  0  0
    3.9983   -1.4834    0.0000 C   0  0  1  0  0  0  0  0  0  0  0  0
    3.2839   -1.8959    0.0000 C   0  0  0  0  0  0  0  0  0  0  0  0
    3.2839   -2.7209    0.0000 C   0  0  0  0  0  0  0  0  0  0  0  0
    5.4273   -0.6584    0.0000 C   0  0  2  0  0  0  0  0  0  0  0  0
    6.1418   -1.0709    0.0000 H   0  0  0  0  0  0  0  0  0  0  0  0
    5.4273   -1.4834    0.0000 C   0  0  0  0  0  0  0  0  0  0  0  0
    6.1418   -0.2459    0.0000 C   0  0  2  0  0  0  0  0  0  0  0  0
    6.8562   -0.6584    0.0000 N   0  0  0  0  0  0  0  0  0  0  0  0
    6.8562   -1.4834    0.0000 C   0  0  0  0  0  0  0  0  0  0  0  0
    6.1418   -1.8959    0.0000 C   0  0  0  0  0  0  0  0  0  0  0  0
    7.5707   -1.8959    0.0000 O   0  0  0  0  0  0  0  0  0  0  0  0
    6.1418    0.5791    0.0000 C   0  0  0  0  0  0  0  0  0  0  0  0
    5.4273    0.9916    0.0000 C   0  0  0  0  0  0  0  0  0  0  0  0
    5.4273    1.8166    0.0000 C   0  0  0  0  0  0  0  0  0  0  0  0
    6.1418    2.2291    0.0000 N   0  0  0  0  0  0  0  0  0  0  0  0
    6.8562    1.8166    0.0000 C   0  0  0  0  0  0  0  0  0  0  0  0
    7.5707    2.2291    0.0000 C   0  0  0  0  0  0  0  0  0  0  0  0
    8.2852    1.8166    0.0000 C   0  0  0  0  0  0  0  0  0  0  0  0
    8.2852    0.9916    0.0000 C   0  0  0  0  0  0  0  0  0  0  0  0
    8.9996    0.5791    0.0000 O   0  0  0  0  0  0  0  0  0  0  0  0
    9.7141    0.9916    0.0000 C   0  0  0  0  0  0  0  0  0  0  0  0
    7.5707    0.5791    0.0000 C   0  0  0  0  0  0  0  0  0  0  0  0
    6.8562    0.9916    0.0000 C   0  0  0  0  0  0  0  0  0  0  0  0
  2  1  1  6  0  0  0
  2  3  1  0  0  0  0
  3  4  1  0  0  0  0
  4  5  1  0  0  0  0
  5  6  1  0  0  0  0
  7  6  1  0  0  0  0
  2  7  1  0  0  0  0
  7  8  1  6  0  0  0
  8  9  1  0  0  0  0
 10  5  1  0  0  0  0
 10 11  1  6  0  0  0
 10 12  1  0  0  0  0
  2 12  1  0  0  0  0
 10 13  1  0  0  0  0
 13 14  1  1  0  0  0
 14 15  1  0  0  0  0
 15 16  1  0  0  0  0
 15 17  2  0  0  0  0
 13 18  1  0  0  0  0
 18 19  2  0  0  0  0
 19 20  1  0  0  0  0
 20 21  2  0  0  0  0
 21 22  1  0  0  0  0
 22 23  2  0  0  0  0
 23 24  1  0  0  0  0
 24 25  2  0  0  0  0
 25 26  1  0  0  0  0
 26 27  1  0  0  0  0
 25 28  1  0  0  0  0
 28 29  2  0  0  0  0
 18 29  1  0  0  0  0
 22 29  1  0  0  0  0
M  END
> <ID>
CPD_1425

$$$$
CPD_1430
  Mrv1822 09091914012D          

 37 41  0  0  1  0            999 V2000
    3.9983    0.6584    0.0000 H   0  0  0  0  0  0  0  0  0  0  0  0
    3.2839    1.0709    0.0000 C   0  0  2  0  0  0  0  0  0  0  0  0
    3.1464    1.6209    0.0000 C   0  0  0  0  0  0  0  0  0  0  0  0
    3.1464    2.1709    0.0000 C   0  0  0  0  0  0  0  0  0  0  0  0
    3.2839    2.7209    0.0000 N   0  0  0  0  0  0  0  0  0  0  0  0
    2.5694    2.3084    0.0000 C   0  0  0  0  0  0  0  0  0  0  0  0
    2.5694    1.4834    0.0000 C   0  0  1  0  0  0  0  0  0  0  0  0
    1.8549    1.0709    0.0000 C   0  0  0  0  0  0  0  0  0  0  0  0
    1.8549    0.2459    0.0000 C   0  0  0  0  0  0  0  0  0  0  0  0
    3.9983    2.3084    0.0000 C   0  0  2  0  0  0  0  0  0  0  0  0
    4.7128    1.8959    0.0000 H   0  0  0  0  0  0  0  0  0  0  0  0
    3.9983    1.4834    0.0000 C   0  0  0  0  0  0  0  0  0  0  0  0
    4.7128    2.7209    0.0000 C   0  0  2  0  0  0  0  0  0  0  0  0
    4.7128    3.5459    0.0000 N   0  0  0  0  0  0  0  0  0  0  0  0
    5.4273    3.9584    0.0000 C   0  0  0  0  0  0  0  0  0  0  0  0
    6.1418    3.5459    0.0000 O   0  0  0  0  0  0  0  0  0  0  0  0
    5.4273    4.7834    0.0000 C   0  0  0  0  0  0  0  0  0  0  0  0
    4.7598    5.2684    0.0000 C   0  0  0  0  0  0  0  0  0  0  0  0
    5.0148    6.0530    0.0000 C   0  0  0  0  0  0  0  0  0  0  0  0
    5.8398    6.0530    0.0000 C   0  0  0  0  0  0  0  0  0  0  0  0
    6.0947    5.2684    0.0000 N   0  0  0  0  0  0  0  0  0  0  0  0
    6.8793    5.0134    0.0000 C   0  0  0  0  0  0  0  0  0  0  0  0
    7.0509    4.2065    0.0000 O   0  0  0  0  0  0  0  0  0  0  0  0
    7.4924    5.5655    0.0000 C   0  0  0  0  0  0  0  0  0  0  0  0
    7.3209    6.3724    0.0000 C   0  0  0  0  0  0  0  0  0  0  0  0
    5.4273    2.3084    0.0000 C   0  0  0  0  0  0  0  0  0  0  0  0
    6.1418    2.7209    0.0000 C   0  0  0  0  0  0  0  0  0  0  0  0
    6.8562    2.3084    0.0000 C   0  0  0  0  0  0  0  0  0  0  0  0
    6.8562    1.4834    0.0000 N   0  0  0  0  0  0  0  0  0  0  0  0
    6.1418    1.0709    0.0000 C   0  0  0  0  0  0  0  0  0  0  0  0
    6.1418    0.2459    0.0000 C   0  0  0  0  0  0  0  0  0  0  0  0
    5.4273   -0.1666    0.0000 C   0  0  0  0  0  0  0  0  0  0  0  0
    4.7128    0.2459    0.0000 C   0  0  0  0  0  0  0  0  0  0  0  0
    3.9983   -0.1666    0.0000 O   0  0  0  0  0  0  0  0  0  0  0  0
    3.2839    0.2459    0.0000 C   0  0  0  0  0  0  0  0  0  0  0  0
    4.7128    1.0709    0.0000 C   0  0  0  0  0  0  0  0  0  0  0  0
    5.4273    1.4834    0.0000 C   0  0  0  0  0  0  0  0  0  0  0  0
  2  1  1  6  0  0  0
  2  3  1  0  0  0  0
  3  4  1  0  0  0  0
  4  5  1  0  0  0  0
  5  6  1  0  0  0  0
  7  6  1  0  0  0  0
  2  7  1  0  0  0  0
  7  8  1  6  0  0  0
  8  9  1  0  0  0  0
 10  5  1  0  0  0  0
 10 11  1  6  0  0  0
 10 12  1  0  0  0  0
  2 12  1  0  0  0  0
 10 13  1  0  0  0  0
 13 14  1  6  0  0  0
 14 15  1  0  0  0  0
 15 16  2  0  0  0  0
 15 17  1  0  0  0  0
 17 18  1  0  0  0  0
 18 19  1  0  0  0  0
 19 20  1  0  0  0  0
 20 21  1  0  0  0  0
 17 21  1  0  0  0  0
 21 22  1  0  0  0  0
 22 23  2  0  0  0  0
 22 24  1  0  0  0  0
 24 25  1  0  0  0  0
 13 26  1  0  0  0  0
 26 27  2  0  0  0  0
 27 28  1  0  0  0  0
 28 29  2  0  0  0  0
 29 30  1  0  0  0  0
 30 31  2  0  0  0  0
 31 32  1  0  0  0  0
 32 33  2  0  0  0  0
 33 34  1  0  0  0  0
 34 35  1  0  0  0  0
 33 36  1  0  0  0  0
 36 37  2  0  0  0  0
 26 37  1  0  0  0  0
 30 37  1  0  0  0  0
M  END
> <ID>
CPD_1430

$$$$
CPD_1435
  Mrv1822 09091914012D          

 39 43  0  0  1  0            999 V2000
    4.7128   -2.7209    0.0000 H   0  0  0  0  0  0  0  0  0  0  0  0
    4.7128   -1.8959    0.0000 C   0  0  2  0  0  0  0  0  0  0  0  0
    4.5753   -1.3459    0.0000 C   0  0  0  0  0  0  0  0  0  0  0  0
    4.5753   -0.7959    0.0000 C   0  0  0  0  0  0  0  0  0  0  0  0
    4.7128   -0.2459    0.0000 N   0  0  0  0  0  0  0  0  0  0  0  0
    3.9983   -0.6584    0.0000 C   0  0  0  0  0  0  0  0  0  0  0  0
    3.9983   -1.4834    0.0000 C   0  0  1  0  0  0  0  0  0  0  0  0
    3.2839   -1.8959    0.0000 C   0  0  0  0  0  0  0  0  0  0  0  0
    3.2839   -2.7209    0.0000 C   0  0  0  0  0  0  0  0  0  0  0  0
    5.4273   -0.6584    0.0000 C   0  0  2  0  0  0  0  0  0  0  0  0
    6.1418   -1.0709    0.0000 H   0  0  0  0  0  0  0  0  0  0  0  0
    5.4273   -1.4834    0.0000 C   0  0  0  0  0  0  0  0  0  0  0  0
    6.1418   -0.2459    0.0000 C   0  0  2  0  0  0  0  0  0  0  0  0
    6.8562   -0.6584    0.0000 N   0  0  0  0  0  0  0  0  0  0  0  0
    6.8562   -1.4834    0.0000 C   0  0  0  0  0  0  0  0  0  0  0  0
    6.1418   -1.8959    0.0000 O   0  0  0  0  0  0  0  0  0  0  0  0
    7.5707   -1.8959    0.0000 C   0  0  0  0  0  0  0  0  0  0  0  0
    8.2852   -1.4834    0.0000 C   0  0  0  0  0  0  0  0  0  0  0  0
    8.9996   -1.8959    0.0000 N   0  0  0  0  0  0  0  0  0  0  0  0
    8.9996   -2.7209    0.0000 C   0  0  0  0  0  0  0  0  0  0  0  0
    9.7141   -3.1334    0.0000 O   0  0  0  0  0  0  0  0  0  0  0  0
    8.2852   -3.1334    0.0000 N   0  0  0  0  0  0  0  0  0  0  0  0
    7.5707   -2.7209    0.0000 C   0  0  0  0  0  0  0  0  0  0  0  0
    8.2852   -0.6584    0.0000 C   0  0  0  0  0  0  0  0  0  0  0  0
    8.2852    0.1666    0.0000 F   0  0  0  0  0  0  0  0  0  0  0  0
    9.1102   -0.6584    0.0000 F   0  0  0  0  0  0  0  0  0  0  0  0
    7.4602   -0.6584    0.0000 F   0  0  0  0  0  0  0  0  0  0  0  0
    6.1418    0.5791    0.0000 C   0  0  0  0  0  0  0  0  0  0  0  0
    5.4273    0.9916    0.0000 C   0  0  0  0  0  0  0  0  0  0  0  0
    5.4273    1.8166    0.0000 C   0  0  0  0  0  0  0  0  0  0  0  0
    6.1418    2.2291    0.0000 N   0  0  0  0  0  0  0  0  0  0  0  0
    6.8562    1.8166    0.0000 C   0  0  0  0  0  0  0  0  0  0  0  0
    7.5707    2.2291    0.0000 C   0  0  0  0  0  0  0  0  0  0  0  0
    8.2852    1.8166    0.0000 C   0  0  0  0  0  0  0  0  0  0  0  0
    8.2852    0.9916    0.0000 C   0  0  0  0  0  0  0  0  0  0  0  0
    8.9996    0.5791    0.0000 O   0  0  0  0  0  0  0  0  0  0  0  0
    8.9996   -0.2459    0.0000 C   0  0  0  0  0  0  0  0  0  0  0  0
    7.5707    0.5791    0.0000 C   0  0  0  0  0  0  0  0  0  0  0  0
    6.8562    0.9916    0.0000 C   0  0  0  0  0  0  0  0  0  0  0  0
  2  1  1  6  0  0  0
  2  3  1  0  0  0  0
  3  4  1  0  0  0  0
  4  5  1  0  0  0  0
  5  6  1  0  0  0  0
  7  6  1  0  0  0  0
  2  7  1  0  0  0  0
  7  8  1  6  0  0  0
  8  9  1  0  0  0  0
 10  5  1  0  0  0  0
 10 11  1  6  0  0  0
 10 12  1  0  0  0  0
  2 12  1  0  0  0  0
 10 13  1  0  0  0  0
 13 14  1  1  0  0  0
 14 15  1  0  0  0  0
 15 16  2  0  0  0  0
 15 17  1  0  0  0  0
 17 18  2  0  0  0  0
 18 19  1  0  0  0  0
 19 20  2  0  0  0  0
 20 21  1  0  0  0  0
 20 22  1  0  0  0  0
 22 23  2  0  0  0  0
 17 23  1  0  0  0  0
 18 24  1  0  0  0  0
 24 25  1  0  0  0  0
 24 26  1  0  0  0  0
 24 27  1  0  0  0  0
 13 28  1  0  0  0  0
 28 29  2  0  0  0  0
 29 30  1  0  0  0  0
 30 31  2  0  0  0  0
 31 32  1  0  0  0  0
 32 33  2  0  0  0  0
 33 34  1  0  0  0  0
 34 35  2  0  0  0  0
 35 36  1  0  0  0  0
 36 37  1  0  0  0  0
 35 38  1  0  0  0  0
 38 39  2  0  0  0  0
 28 39  1  0  0  0  0
 32 39  1  0  0  0  0
M  END
> <ID>
CPD_1435

$$$$
CPD_1440
  Mrv1822 09091914012D          

 30 33  0  0  0  0            999 V2000
   -4.2868   -4.1250    0.0000 C   0  0  0  0  0  0  0  0  0  0  0  0
   -3.5724   -3.7125    0.0000 N   0  0  0  0  0  0  0  0  0  0  0  0
   -3.5724   -2.8875    0.0000 C   0  0  0  0  0  0  0  0  0  0  0  0
   -2.8579   -2.4750    0.0000 C   0  0  0  0  0  0  0  0  0  0  0  0
   -2.1434   -2.8875    0.0000 N   0  0  0  0  0  0  0  0  0  0  0  0
   -1.4289   -2.4750    0.0000 C   0  0  0  0  0  0  0  0  0  0  0  0
   -1.4289   -1.6500    0.0000 C   0  0  0  0  0  0  0  0  0  0  0  0
   -2.1434   -1.2375    0.0000 C   0  0  0  0  0  0  0  0  0  0  0  0
   -2.1434   -0.4125    0.0000 C   0  0  0  0  0  0  0  0  0  0  0  0
   -1.4289    0.0000    0.0000 C   0  0  0  0  0  0  0  0  0  0  0  0
   -0.7145   -0.4125    0.0000 N   0  0  0  0  0  0  0  0  0  0  0  0
   -0.7145   -1.2375    0.0000 C   0  0  0  0  0  0  0  0  0  0  0  0
    0.0000    0.0000    0.0000 C   0  0  0  0  0  0  0  0  0  0  0  0
    0.0000    0.8250    0.0000 O   0  0  0  0  0  0  0  0  0  0  0  0
    0.7145   -0.4125    0.0000 C   0  0  0  0  0  0  0  0  0  0  0  0
    1.4289    0.0000    0.0000 C   0  0  0  0  0  0  0  0  0  0  0  0
    1.4289    0.8250    0.0000 Cl  0  0  0  0  0  0  0  0  0  0  0  0
    2.1434   -0.4125    0.0000 C   0  0  0  0  0  0  0  0  0  0  0  0
    2.8579    0.0000    0.0000 C   0  0  0  0  0  0  0  0  0  0  0  0
    3.5724   -0.4125    0.0000 C   0  0  0  0  0  0  0  0  0  0  0  0
    3.5724   -1.2375    0.0000 C   0  0  0  0  0  0  0  0  0  0  0  0
    2.8579   -1.6500    0.0000 C   0  0  0  0  0  0  0  0  0  0  0  0
    2.1434   -1.2375    0.0000 C   0  0  0  0  0  0  0  0  0  0  0  0
    1.4289   -1.6500    0.0000 N   0  0  0  0  0  0  0  0  0  0  0  0
    0.7145   -1.2375    0.0000 C   0  0  0  0  0  0  0  0  0  0  0  0
    4.2868   -0.0000    0.0000 C   0  0  0  0  0  0  0  0  0  0  0  0
    4.2868    0.8250    0.0000 C   0  0  0  0  0  0  0  0  0  0  0  0
    5.0013   -0.4125    0.0000 O   0  0  0  0  0  0  0  0  0  0  0  0
   -2.1434   -3.7125    0.0000 C   0  0  0  0  0  0  0  0  0  0  0  0
   -2.8579   -4.1250    0.0000 C   0  0  0  0  0  0  0  0  0  0  0  0
  1  2  1  0  0  0  0
  2  3  1  0  0  0  0
  3  4  1  0  0  0  0
  4  5  1  0  0  0  0
  5  6  1  0  0  0  0
  6  7  1  0  0  0  0
  7  8  1  0  0  0  0
  8  9  1  0  0  0  0
  9 10  1  0  0  0  0
 10 11  1  0  0  0  0
 11 12  1  0  0  0  0
  7 12  1  0  0  0  0
 11 13  1  0  0  0  0
 13 14  2  0  0  0  0
 13 15  1  0  0  0  0
 15 16  2  0  0  0  0
 16 17  1  0  0  0  0
 16 18  1  0  0  0  0
 18 19  2  0  0  0  0
 19 20  1  0  0  0  0
 20 21  2  0  0  0  0
 21 22  1  0  0  0  0
 22 23  2  0  0  0  0
 18 23  1  0  0  0  0
 23 24  1  0  0  0  0
 24 25  2  0  0  0  0
 15 25  1  0  0  0  0
 20 26  1  0  0  0  0
 26 27  1  0  0  0  0
 26 28  2  0  0  0  0
  5 29  1  0  0  0  0
 29 30  1  0  0  0  0
  2 30  1  0  0  0  0
M  END
> <ID>
CPD_1440

$$$$
CPD_1445
  Mrv1822 09091914012D          

 35 38  0  0  0  0            999 V2000
    4.2868    3.3000    0.0000 C   0  0  0  0  0  0  0  0  0  0  0  0
    4.2868    2.4750    0.0000 C   0  0  0  0  0  0  0  0  0  0  0  0
    5.0013    2.0625    0.0000 N   0  0  0  0  0  0  0  0  0  0  0  0
    5.7158    2.4750    0.0000 C   0  0  0  0  0  0  0  0  0  0  0  0
    6.4302    2.0625    0.0000 C   0  0  0  0  0  0  0  0  0  0  0  0
    5.0013    1.2375    0.0000 C   0  0  0  0  0  0  0  0  0  0  0  0
    5.7158    0.8250    0.0000 C   0  0  0  0  0  0  0  0  0  0  0  0
    5.7158    0.0000    0.0000 C   0  0  0  0  0  0  0  0  0  0  0  0
    5.0013   -0.4125    0.0000 C   0  0  0  0  0  0  0  0  0  0  0  0
    4.2868    0.0000    0.0000 C   0  0  0  0  0  0  0  0  0  0  0  0
    4.2868    0.8250    0.0000 C   0  0  0  0  0  0  0  0  0  0  0  0
    5.0013   -1.2375    0.0000 C   0  0  0  0  0  0  0  0  0  0  0  0
    5.7158   -1.6500    0.0000 N   0  0  0  0  0  0  0  0  0  0  0  0
    5.7158   -2.4750    0.0000 C   0  0  0  0  0  0  0  0  0  0  0  0
    6.4302   -2.8875    0.0000 O   0  0  0  0  0  0  0  0  0  0  0  0
    5.0013   -2.8875    0.0000 N   0  0  0  0  0  0  0  0  0  0  0  0
    4.2868   -2.4750    0.0000 C   0  0  0  0  0  0  0  0  0  0  0  0
    3.5724   -2.8875    0.0000 C   0  0  0  0  0  0  0  0  0  0  0  0
    4.2868   -1.6500    0.0000 C   0  0  0  0  0  0  0  0  0  0  0  0
    3.5724   -1.2375    0.0000 C   0  0  0  0  0  0  0  0  0  0  0  0
    3.5724   -0.4125    0.0000 O   0  0  0  0  0  0  0  0  0  0  0  0
    2.8579   -1.6500    0.0000 N   0  0  0  0  0  0  0  0  0  0  0  0
    2.8579   -2.4750    0.0000 C   0  0  0  0  0  0  0  0  0  0  0  0
    2.1434   -2.8875    0.0000 C   0  0  0  0  0  0  0  0  0  0  0  0
    1.4289   -2.4750    0.0000 C   0  0  0  0  0  0  0  0  0  0  0  0
    1.4289   -1.6500    0.0000 C   0  0  0  0  0  0  0  0  0  0  0  0
    0.7145   -1.2375    0.0000 C   0  0  0  0  0  0  0  0  0  0  0  0
    0.7145   -0.4125    0.0000 N   0  0  0  0  0  0  0  0  0  0  0  0
   -0.0000    0.0000    0.0000 C   0  0  0  0  0  0  0  0  0  0  0  0
    0.0000    0.8250    0.0000 C   0  0  0  0  0  0  0  0  0  0  0  0
    0.7145    1.2375    0.0000 N   0  0  0  0  0  0  0  0  0  0  0  0
    0.7145    2.0625    0.0000 C   0  0  0  0  0  0  0  0  0  0  0  0
    1.4289    0.8250    0.0000 C   0  0  0  0  0  0  0  0  0  0  0  0
    1.4289    0.0000    0.0000 C   0  0  0  0  0  0  0  0  0  0  0  0
    2.1434   -1.2375    0.0000 C   0  0  0  0  0  0  0  0  0  0  0  0
  1  2  1  0  0  0  0
  2  3  1  0  0  0  0
  3  4  1  0  0  0  0
  4  5  1  0  0  0  0
  3  6  1  0  0  0  0
  6  7  2  0  0  0  0
  7  8  1  0  0  0  0
  8  9  2  0  0  0  0
  9 10  1  0  0  0  0
 10 11  2  0  0  0  0
  6 11  1  0  0  0  0
  9 12  1  0  0  0  0
 12 13  1  0  0  0  0
 13 14  1  0  0  0  0
 14 15  2  0  0  0  0
 14 16  1  0  0  0  0
 16 17  1  0  0  0  0
 17 18  1  0  0  0  0
 17 19  2  0  0  0  0
 12 19  1  0  0  0  0
 19 20  1  0  0  0  0
 20 21  2  0  0  0  0
 20 22  1  0  0  0  0
 22 23  1  0  0  0  0
 23 24  1  0  0  0  0
 24 25  1  0  0  0  0
 25 26  1  0  0  0  0
 26 27  1  0  0  0  0
 27 28  1  0  0  0  0
 28 29  1  0  0  0  0
 29 30  1  0  0  0  0
 30 31  1  0  0  0  0
 31 32  1  0  0  0  0
 31 33  1  0  0  0  0
 33 34  1  0  0  0  0
 28 34  1  0  0  0  0
 26 35  1  0  0  0  0
 22 35  1  0  0  0  0
M  END
> <ID>
CPD_1445

$$$$
CPD_1450
  Mrv1822 09091914012D          

 34 36  0  0  0  0            999 V2000
    4.2868    0.8250    0.0000 C   0  0  0  0  0  0  0  0  0  0  0  0
    3.5724    1.2375    0.0000 N   0  0  0  0  0  0  0  0  0  0  0  0
    3.5724    2.0625    0.0000 C   0  0  0  0  0  0  0  0  0  0  0  0
    4.2868    2.4750    0.0000 C   0  0  0  0  0  0  0  0  0  0  0  0
    3.8743    3.1895    0.0000 F   0  0  0  0  0  0  0  0  0  0  0  0
    4.6993    1.7605    0.0000 F   0  0  0  0  0  0  0  0  0  0  0  0
    5.0013    2.8875    0.0000 C   0  0  0  0  0  0  0  0  0  0  0  0
    5.0013    3.7125    0.0000 O   0  0  0  0  0  0  0  0  0  0  0  0
    5.7158    2.4750    0.0000 O   0  0  0  0  0  0  0  0  0  0  0  0
    2.8579    0.8250    0.0000 C   0  0  0  0  0  0  0  0  0  0  0  0
    2.1434    1.2375    0.0000 O   0  0  0  0  0  0  0  0  0  0  0  0
    2.8579    0.0000    0.0000 C   0  0  0  0  0  0  0  0  0  0  0  0
    3.5724   -0.4125    0.0000 C   0  0  0  0  0  0  0  0  0  0  0  0
    3.5724   -1.2375    0.0000 C   0  0  0  0  0  0  0  0  0  0  0  0
    2.8579   -1.6500    0.0000 C   0  0  0  0  0  0  0  0  0  0  0  0
    2.1434   -1.2375    0.0000 N   0  0  0  0  0  0  0  0  0  0  0  0
    2.1434   -0.4125    0.0000 C   0  0  0  0  0  0  0  0  0  0  0  0
    1.4289   -1.6500    0.0000 C   0  0  0  0  0  0  0  0  0  0  0  0
    0.7145   -1.2375    0.0000 O   0  0  0  0  0  0  0  0  0  0  0  0
    1.4289   -2.4750    0.0000 C   0  0  0  0  0  0  0  0  0  0  0  0
    2.0964   -2.9599    0.0000 N   0  0  0  0  0  0  0  0  0  0  0  0
    1.8414   -3.7445    0.0000 N   0  0  0  0  0  0  0  0  0  0  0  0
    1.0164   -3.7445    0.0000 C   0  0  0  0  0  0  0  0  0  0  0  0
    0.7615   -2.9599    0.0000 S   0  0  0  0  0  0  0  0  0  0  0  0
    0.5315   -4.4120    0.0000 C   0  0  0  0  0  0  0  0  0  0  0  0
   -0.2890   -4.3257    0.0000 O   0  0  0  0  0  0  0  0  0  0  0  0
    0.8671   -5.1657    0.0000 N   0  0  0  0  0  0  0  0  0  0  0  0
    0.3822   -5.8331    0.0000 C   0  0  0  0  0  0  0  0  0  0  0  0
    0.7177   -6.5868    0.0000 C   0  0  0  0  0  0  0  0  0  0  0  0
    0.2328   -7.2542    0.0000 C   0  0  0  0  0  0  0  0  0  0  0  0
   -0.5877   -7.1680    0.0000 C   0  0  0  0  0  0  0  0  0  0  0  0
   -1.0726   -7.8354    0.0000 C   0  0  0  0  0  0  0  0  0  0  0  0
   -0.9232   -6.4143    0.0000 C   0  0  0  0  0  0  0  0  0  0  0  0
   -0.4383   -5.7469    0.0000 C   0  0  0  0  0  0  0  0  0  0  0  0
  1  2  1  0  0  0  0
  2  3  1  0  0  0  0
  3  4  1  0  0  0  0
  4  5  1  0  0  0  0
  4  6  1  0  0  0  0
  4  7  1  0  0  0  0
  7  8  1  0  0  0  0
  7  9  2  0  0  0  0
  2 10  1  0  0  0  0
 10 11  2  0  0  0  0
 10 12  1  0  0  0  0
 12 13  1  0  0  0  0
 13 14  1  0  0  0  0
 14 15  1  0  0  0  0
 15 16  1  0  0  0  0
 16 17  1  0  0  0  0
 12 17  1  0  0  0  0
 16 18  1  0  0  0  0
 18 19  2  0  0  0  0
 18 20  1  0  0  0  0
 20 21  2  0  0  0  0
 21 22  1  0  0  0  0
 22 23  2  0  0  0  0
 23 24  1  0  0  0  0
 20 24  1  0  0  0  0
 23 25  1  0  0  0  0
 25 26  2  0  0  0  0
 25 27  1  0  0  0  0
 27 28  1  0  0  0  0
 28 29  2  0  0  0  0
 29 30  1  0  0  0  0
 30 31  2  0  0  0  0
 31 32  1  0  0  0  0
 31 33  1  0  0  0  0
 33 34  2  0  0  0  0
 28 34  1  0  0  0  0
M  END
> <ID>
CPD_1450

$$$$
CPD_1455
  Mrv1822 09091914012D          

 19 19  0  0  0  0            999 V2000
    1.2822    2.3518    0.0000 C   0  0  0  0  0  0  0  0  0  0  0  0
    0.5678    1.9393    0.0000 C   0  0  0  0  0  0  0  0  0  0  0  0
   -0.1467    2.3518    0.0000 C   0  0  0  0  0  0  0  0  0  0  0  0
   -0.1467    3.1768    0.0000 C   0  0  0  0  0  0  0  0  0  0  0  0
    0.5678    3.5893    0.0000 O   0  0  0  0  0  0  0  0  0  0  0  0
   -0.8612    3.5893    0.0000 N   0  0  0  0  0  0  0  0  0  0  0  0
   -1.5757    3.1768    0.0000 C   0  0  0  0  0  0  0  0  0  0  0  0
   -0.8612    4.4143    0.0000 C   0  0  0  0  0  0  0  0  0  0  0  0
   -1.5757    4.8268    0.0000 C   0  0  0  0  0  0  0  0  0  0  0  0
   -1.9882    4.1123    0.0000 F   0  0  0  0  0  0  0  0  0  0  0  0
   -1.1632    5.5413    0.0000 F   0  0  0  0  0  0  0  0  0  0  0  0
   -2.2901    5.2393    0.0000 C   0  0  0  0  0  0  0  0  0  0  0  0
   -2.2901    6.0643    0.0000 O   0  0  0  0  0  0  0  0  0  0  0  0
   -3.0046    4.8268    0.0000 O   0  0  0  0  0  0  0  0  0  0  0  0
    0.5678    1.1143    0.0000 N   0  0  0  0  0  0  0  0  0  0  0  0
    1.2352    0.6294    0.0000 C   0  0  0  0  0  0  0  0  0  0  0  0
    0.9803   -0.1553    0.0000 C   0  0  0  0  0  0  0  0  0  0  0  0
    0.1553   -0.1553    0.0000 C   0  0  0  0  0  0  0  0  0  0  0  0
   -0.0997    0.6294    0.0000 C   0  0  0  0  0  0  0  0  0  0  0  0
  1  2  1  0  0  0  0
  2  3  1  0  0  0  0
  3  4  1  0  0  0  0
  4  5  2  0  0  0  0
  4  6  1  0  0  0  0
  6  7  1  0  0  0  0
  6  8  1  0  0  0  0
  8  9  1  0  0  0  0
  9 10  1  0  0  0  0
  9 11  1  0  0  0  0
  9 12  1  0  0  0  0
 12 13  1  0  0  0  0
 12 14  2  0  0  0  0
  2 15  1  0  0  0  0
 15 16  1  0  0  0  0
 16 17  1  0  0  0  0
 17 18  1  0  0  0  0
 18 19  1  0  0  0  0
 15 19  1  0  0  0  0
M  END
> <ID>
CPD_1455

$$$$
CPD_1460
  Mrv1822 09091914012D          

 18 18  0  0  0  0            999 V2000
    1.0776    2.6835    0.0000 C   0  0  0  0  0  0  0  0  0  0  0  0
    0.2707    2.5120    0.0000 N   0  0  0  0  0  0  0  0  0  0  0  0
   -0.2814    3.1251    0.0000 C   0  0  0  0  0  0  0  0  0  0  0  0
   -0.0264    3.9097    0.0000 C   0  0  0  0  0  0  0  0  0  0  0  0
   -0.8111    4.1647    0.0000 F   0  0  0  0  0  0  0  0  0  0  0  0
    0.7582    3.6548    0.0000 F   0  0  0  0  0  0  0  0  0  0  0  0
    0.2285    4.6943    0.0000 C   0  0  0  0  0  0  0  0  0  0  0  0
   -0.3235    5.3074    0.0000 O   0  0  0  0  0  0  0  0  0  0  0  0
    1.0355    4.8659    0.0000 O   0  0  0  0  0  0  0  0  0  0  0  0
    0.0157    1.7274    0.0000 C   0  0  0  0  0  0  0  0  0  0  0  0
   -0.7912    1.5559    0.0000 O   0  0  0  0  0  0  0  0  0  0  0  0
    0.5678    1.1143    0.0000 C   0  0  0  0  0  0  0  0  0  0  0  0
    1.2352    0.6294    0.0000 C   0  0  0  0  0  0  0  0  0  0  0  0
    0.9803   -0.1553    0.0000 C   0  0  0  0  0  0  0  0  0  0  0  0
    0.1553   -0.1553    0.0000 C   0  0  0  0  0  0  0  0  0  0  0  0
   -0.0997    0.6294    0.0000 C   0  0  0  0  0  0  0  0  0  0  0  0
    1.1198    1.7274    0.0000 C   0  0  0  0  0  0  0  0  0  0  0  0
    1.6718    2.3405    0.0000 N   0  0  0  0  0  0  0  0  0  0  0  0
  1  2  1  0  0  0  0
  2  3  1  0  0  0  0
  3  4  1  0  0  0  0
  4  5  1  0  0  0  0
  4  6  1  0  0  0  0
  4  7  1  0  0  0  0
  7  8  1  0  0  0  0
  7  9  2  0  0  0  0
  2 10  1  0  0  0  0
 10 11  2  0  0  0  0
 10 12  1  0  0  0  0
 12 13  1  0  0  0  0
 13 14  1  0  0  0  0
 14 15  1  0  0  0  0
 15 16  1  0  0  0  0
 12 16  1  0  0  0  0
 12 17  1  0  0  0  0
 17 18  3  0  0  0  0
M  END
> <ID>
CPD_1460

$$$$
CPD_1465
  Mrv1822 09091914012D          

 34 36  0  0  0  0            999 V2000
    0.7145    1.2375    0.0000 C   0  0  0  0  0  0  0  0  0  0  0  0
    1.4289    0.8250    0.0000 O   0  0  0  0  0  0  0  0  0  0  0  0
    1.4289    0.0000    0.0000 C   0  0  0  0  0  0  0  0  0  0  0  0
    2.1434   -0.4125    0.0000 C   0  0  0  0  0  0  0  0  0  0  0  0
    2.8579    0.0000    0.0000 N   0  0  0  0  0  0  0  0  0  0  0  0
    2.8579    0.8250    0.0000 C   0  0  0  0  0  0  0  0  0  0  0  0
    3.5724    1.2375    0.0000 C   0  0  0  0  0  0  0  0  0  0  0  0
    4.2868    0.8250    0.0000 O   0  0  0  0  0  0  0  0  0  0  0  0
    3.5724    2.0625    0.0000 N   0  0  0  0  0  0  0  0  0  0  0  0
    4.2868    2.4750    0.0000 C   0  0  0  0  0  0  0  0  0  0  0  0
    4.3731    3.2955    0.0000 N   0  0  0  0  0  0  0  0  0  0  0  0
    5.1800    3.4670    0.0000 N   0  0  0  0  0  0  0  0  0  0  0  0
    5.5156    4.2207    0.0000 C   0  0  0  0  0  0  0  0  0  0  0  0
    5.5925    2.7525    0.0000 C   0  0  0  0  0  0  0  0  0  0  0  0
    6.4130    2.6663    0.0000 C   0  0  0  0  0  0  0  0  0  0  0  0
    6.8979    3.3337    0.0000 O   0  0  0  0  0  0  0  0  0  0  0  0
    7.7184    3.2475    0.0000 C   0  0  0  0  0  0  0  0  0  0  0  0
    8.2033    3.9149    0.0000 C   0  0  0  0  0  0  0  0  0  0  0  0
    9.0238    3.8287    0.0000 C   0  0  0  0  0  0  0  0  0  0  0  0
    9.8443    3.7425    0.0000 F   0  0  0  0  0  0  0  0  0  0  0  0
    9.1101    4.6492    0.0000 F   0  0  0  0  0  0  0  0  0  0  0  0
    8.9376    3.0082    0.0000 F   0  0  0  0  0  0  0  0  0  0  0  0
    5.0405    2.1394    0.0000 C   0  0  0  0  0  0  0  0  0  0  0  0
    3.5724   -0.4125    0.0000 C   0  0  0  0  0  0  0  0  0  0  0  0
    4.2868   -0.0000    0.0000 O   0  0  0  0  0  0  0  0  0  0  0  0
    3.5724   -1.2375    0.0000 C   0  0  0  0  0  0  0  0  0  0  0  0
    2.8579   -1.6500    0.0000 C   0  0  0  0  0  0  0  0  0  0  0  0
    2.8579   -2.4750    0.0000 C   0  0  0  0  0  0  0  0  0  0  0  0
    2.1434   -1.2375    0.0000 C   0  0  0  0  0  0  0  0  0  0  0  0
    1.4289   -1.6500    0.0000 C   0  0  0  0  0  0  0  0  0  0  0  0
    1.4289   -2.4750    0.0000 O   0  0  0  0  0  0  0  0  0  0  0  0
    0.7145   -2.8875    0.0000 C   0  0  0  0  0  0  0  0  0  0  0  0
    0.7145   -1.2375    0.0000 C   0  0  0  0  0  0  0  0  0  0  0  0
    0.7145   -0.4125    0.0000 C   0  0  0  0  0  0  0  0  0  0  0  0
  1  2  1  0  0  0  0
  2  3  1  0  0  0  0
  3  4  2  0  0  0  0
  4  5  1  0  0  0  0
  5  6  1  0  0  0  0
  6  7  1  0  0  0  0
  7  8  2  0  0  0  0
  7  9  1  0  0  0  0
  9 10  1  0  0  0  0
 10 11  2  0  0  0  0
 11 12  1  0  0  0  0
 12 13  1  0  0  0  0
 12 14  1  0  0  0  0
 14 15  1  0  0  0  0
 15 16  1  0  0  0  0
 16 17  1  0  0  0  0
 17 18  1  0  0  0  0
 18 19  1  0  0  0  0
 19 20  1  0  0  0  0
 19 21  1  0  0  0  0
 19 22  1  0  0  0  0
 14 23  2  0  0  0  0
 10 23  1  0  0  0  0
  5 24  1  0  0  0  0
 24 25  2  0  0  0  0
 24 26  1  0  0  0  0
 26 27  2  0  0  0  0
 27 28  1  0  0  0  0
 27 29  1  0  0  0  0
  4 29  1  0  0  0  0
 29 30  2  0  0  0  0
 30 31  1  0  0  0  0
 31 32  1  0  0  0  0
 30 33  1  0  0  0  0
 33 34  2  0  0  0  0
  3 34  1  0  0  0  0
M  END
> <ID>
CPD_1465

$$$$
CPD_1470
  Mrv1822 09091914012D          

 33 35  0  0  0  0            999 V2000
    2.1434   -2.8875    0.0000 C   0  0  0  0  0  0  0  0  0  0  0  0
    1.4289   -2.4750    0.0000 O   0  0  0  0  0  0  0  0  0  0  0  0
    1.4289   -1.6500    0.0000 C   0  0  0  0  0  0  0  0  0  0  0  0
    0.7145   -1.2375    0.0000 C   0  0  0  0  0  0  0  0  0  0  0  0
    0.7145   -0.4125    0.0000 C   0  0  0  0  0  0  0  0  0  0  0  0
    1.4289    0.0000    0.0000 N   0  0  0  0  0  0  0  0  0  0  0  0
    2.1434   -0.4125    0.0000 C   0  0  0  0  0  0  0  0  0  0  0  0
    2.8579    0.0000    0.0000 C   0  0  0  0  0  0  0  0  0  0  0  0
    3.5724   -0.4125    0.0000 C   0  0  0  0  0  0  0  0  0  0  0  0
    4.2868   -0.0000    0.0000 O   0  0  0  0  0  0  0  0  0  0  0  0
    5.0013   -0.4125    0.0000 C   0  0  0  0  0  0  0  0  0  0  0  0
    3.5724   -1.2375    0.0000 C   0  0  0  0  0  0  0  0  0  0  0  0
    4.2868   -1.6500    0.0000 O   0  0  0  0  0  0  0  0  0  0  0  0
    4.2868   -2.4750    0.0000 C   0  0  0  0  0  0  0  0  0  0  0  0
    2.8579   -1.6500    0.0000 C   0  0  0  0  0  0  0  0  0  0  0  0
    2.1434   -1.2375    0.0000 C   0  0  0  0  0  0  0  0  0  0  0  0
    0.0000    0.0000    0.0000 C   0  0  0  0  0  0  0  0  0  0  0  0
   -0.7145   -0.4125    0.0000 O   0  0  0  0  0  0  0  0  0  0  0  0
    0.0000    0.8250    0.0000 N   0  0  0  0  0  0  0  0  0  0  0  0
   -0.7145    1.2375    0.0000 C   0  0  0  0  0  0  0  0  0  0  0  0
   -1.4681    0.9019    0.0000 N   0  0  0  0  0  0  0  0  0  0  0  0
   -2.0202    1.5150    0.0000 N   0  0  0  0  0  0  0  0  0  0  0  0
   -2.8407    1.4288    0.0000 C   0  0  0  0  0  0  0  0  0  0  0  0
   -1.6077    2.2295    0.0000 C   0  0  0  0  0  0  0  0  0  0  0  0
   -1.9432    2.9832    0.0000 C   0  0  0  0  0  0  0  0  0  0  0  0
   -1.4583    3.6506    0.0000 O   0  0  0  0  0  0  0  0  0  0  0  0
   -1.7939    4.4043    0.0000 C   0  0  0  0  0  0  0  0  0  0  0  0
   -1.3089    5.0717    0.0000 C   0  0  0  0  0  0  0  0  0  0  0  0
   -1.6445    5.8254    0.0000 C   0  0  0  0  0  0  0  0  0  0  0  0
   -1.9801    6.5791    0.0000 F   0  0  0  0  0  0  0  0  0  0  0  0
   -0.8908    6.1610    0.0000 F   0  0  0  0  0  0  0  0  0  0  0  0
   -2.3982    5.4899    0.0000 F   0  0  0  0  0  0  0  0  0  0  0  0
   -0.8007    2.0580    0.0000 C   0  0  0  0  0  0  0  0  0  0  0  0
  1  2  1  0  0  0  0
  2  3  1  0  0  0  0
  3  4  2  0  0  0  0
  4  5  1  0  0  0  0
  5  6  2  0  0  0  0
  6  7  1  0  0  0  0
  7  8  2  0  0  0  0
  8  9  1  0  0  0  0
  9 10  1  0  0  0  0
 10 11  1  0  0  0  0
  9 12  2  0  0  0  0
 12 13  1  0  0  0  0
 13 14  1  0  0  0  0
 12 15  1  0  0  0  0
 15 16  2  0  0  0  0
  3 16  1  0  0  0  0
  7 16  1  0  0  0  0
  5 17  1  0  0  0  0
 17 18  2  0  0  0  0
 17 19  1  0  0  0  0
 19 20  1  0  0  0  0
 20 21  2  0  0  0  0
 21 22  1  0  0  0  0
 22 23  1  0  0  0  0
 22 24  1  0  0  0  0
 24 25  1  0  0  0  0
 25 26  1  0  0  0  0
 26 27  1  0  0  0  0
 27 28  1  0  0  0  0
 28 29  1  0  0  0  0
 29 30  1  0  0  0  0
 29 31  1  0  0  0  0
 29 32  1  0  0  0  0
 24 33  2  0  0  0  0
 20 33  1  0  0  0  0
M  END
> <ID>
CPD_1470

$$$$
CPD_1475
  Mrv1822 09091914012D          

 25 26  0  0  0  0            999 V2000
    2.2501    8.4777    0.0000 C   0  0  0  0  0  0  0  0  0  0  0  0
    1.5356    8.0652    0.0000 C   0  0  1  0  0  0  0  0  0  0  0  0
    1.5356    7.2402    0.0000 C   0  0  0  0  0  0  0  0  0  0  0  0
    0.8212    6.8277    0.0000 C   0  0  0  0  0  0  0  0  0  0  0  0
    0.1067    7.2402    0.0000 C   0  0  2  0  0  0  0  0  0  0  0  0
   -0.6078    6.8277    0.0000 C   0  0  0  0  0  0  0  0  0  0  0  0
   -0.6078    6.0027    0.0000 C   0  0  0  0  0  0  0  0  0  0  0  0
    0.1067    5.5902    0.0000 O   0  0  0  0  0  0  0  0  0  0  0  0
   -1.3222    5.5902    0.0000 N   0  0  0  0  0  0  0  0  0  0  0  0
   -1.3222    4.7652    0.0000 C   0  0  0  0  0  0  0  0  0  0  0  0
   -0.6548    4.2803    0.0000 N   0  0  0  0  0  0  0  0  0  0  0  0
   -0.9097    3.4956    0.0000 N   0  0  0  0  0  0  0  0  0  0  0  0
   -0.4248    2.8282    0.0000 C   0  0  0  0  0  0  0  0  0  0  0  0
   -1.7347    3.4956    0.0000 C   0  0  0  0  0  0  0  0  0  0  0  0
   -2.2197    2.8282    0.0000 C   0  0  0  0  0  0  0  0  0  0  0  0
   -3.0401    2.9144    0.0000 O   0  0  0  0  0  0  0  0  0  0  0  0
   -3.5251    2.2470    0.0000 C   0  0  0  0  0  0  0  0  0  0  0  0
   -4.3455    2.3332    0.0000 C   0  0  0  0  0  0  0  0  0  0  0  0
   -4.8305    1.6658    0.0000 C   0  0  0  0  0  0  0  0  0  0  0  0
   -5.3154    0.9984    0.0000 F   0  0  0  0  0  0  0  0  0  0  0  0
   -5.4979    2.1507    0.0000 F   0  0  0  0  0  0  0  0  0  0  0  0
   -4.1630    1.1809    0.0000 F   0  0  0  0  0  0  0  0  0  0  0  0
   -1.9897    4.2803    0.0000 C   0  0  0  0  0  0  0  0  0  0  0  0
    0.1067    8.0652    0.0000 C   0  0  0  0  0  0  0  0  0  0  0  0
    0.8212    8.4777    0.0000 C   0  0  0  0  0  0  0  0  0  0  0  0
  2  1  1  1  0  0  0
  2  3  1  0  0  0  0
  3  4  1  0  0  0  0
  5  4  1  0  0  0  0
  5  6  1  6  0  0  0
  6  7  1  0  0  0  0
  7  8  2  0  0  0  0
  7  9  1  0  0  0  0
  9 10  1  0  0  0  0
 10 11  2  0  0  0  0
 11 12  1  0  0  0  0
 12 13  1  0  0  0  0
 12 14  1  0  0  0  0
 14 15  1  0  0  0  0
 15 16  1  0  0  0  0
 16 17  1  0  0  0  0
 17 18  1  0  0  0  0
 18 19  1  0  0  0  0
 19 20  1  0  0  0  0
 19 21  1  0  0  0  0
 19 22  1  0  0  0  0
 14 23  2  0  0  0  0
 10 23  1  0  0  0  0
  5 24  1  0  0  0  0
 24 25  1  0  0  0  0
  2 25  1  0  0  0  0
M  END
> <ID>
CPD_1475

$$$$
CPD_1480
  Mrv1822 09091914012D          

 27 29  0  0  0  0            999 V2000
   -2.7512   -2.5366    0.0000 C   0  0  0  0  0  0  0  0  0  0  0  0
   -2.0367   -2.9491    0.0000 C   0  0  0  0  0  0  0  0  0  0  0  0
   -2.0367   -3.7741    0.0000 N   0  0  0  0  0  0  0  0  0  0  0  0
   -1.3693   -4.2590    0.0000 N   0  0  0  0  0  0  0  0  0  0  0  0
   -1.6242   -5.0437    0.0000 C   0  0  0  0  0  0  0  0  0  0  0  0
   -1.1393   -5.7111    0.0000 N   0  0  0  0  0  0  0  0  0  0  0  0
   -0.3188   -5.6249    0.0000 C   0  0  0  0  0  0  0  0  0  0  0  0
    0.0168   -4.8712    0.0000 O   0  0  0  0  0  0  0  0  0  0  0  0
    0.1661   -6.2923    0.0000 C   0  0  0  0  0  0  0  0  0  0  0  0
    0.9866   -6.2061    0.0000 C   0  0  0  0  0  0  0  0  0  0  0  0
    1.4715   -6.8735    0.0000 C   0  0  0  0  0  0  0  0  0  0  0  0
    1.1360   -7.6272    0.0000 C   0  0  0  0  0  0  0  0  0  0  0  0
    0.3155   -7.7134    0.0000 C   0  0  0  0  0  0  0  0  0  0  0  0
   -0.1694   -7.0460    0.0000 C   0  0  0  0  0  0  0  0  0  0  0  0
    2.2920   -6.7873    0.0000 C   0  0  0  0  0  0  0  0  0  0  0  0
    2.6276   -6.0336    0.0000 C   0  0  0  0  0  0  0  0  0  0  0  0
    2.1426   -5.3661    0.0000 F   0  0  0  0  0  0  0  0  0  0  0  0
    3.4480   -5.9473    0.0000 C   0  0  0  0  0  0  0  0  0  0  0  0
    3.9330   -6.6148    0.0000 C   0  0  0  0  0  0  0  0  0  0  0  0
    3.5974   -7.3685    0.0000 C   0  0  0  0  0  0  0  0  0  0  0  0
    4.0823   -8.0359    0.0000 O   0  0  0  0  0  0  0  0  0  0  0  0
    4.9028   -7.9497    0.0000 C   0  0  0  0  0  0  0  0  0  0  0  0
    2.7769   -7.4547    0.0000 C   0  0  0  0  0  0  0  0  0  0  0  0
   -2.4492   -5.0437    0.0000 C   0  0  0  0  0  0  0  0  0  0  0  0
   -2.7041   -4.2590    0.0000 C   0  0  0  0  0  0  0  0  0  0  0  0
   -3.4888   -4.0041    0.0000 C   0  0  0  0  0  0  0  0  0  0  0  0
   -3.6603   -3.1971    0.0000 O   0  0  0  0  0  0  0  0  0  0  0  0
  1  2  1  0  0  0  0
  2  3  1  0  0  0  0
  3  4  1  0  0  0  0
  4  5  2  0  0  0  0
  5  6  1  0  0  0  0
  6  7  1  0  0  0  0
  7  8  2  0  0  0  0
  7  9  1  0  0  0  0
  9 10  2  0  0  0  0
 10 11  1  0  0  0  0
 11 12  2  0  0  0  0
 12 13  1  0  0  0  0
 13 14  2  0  0  0  0
  9 14  1  0  0  0  0
 11 15  1  0  0  0  0
 15 16  2  0  0  0  0
 16 17  1  0  0  0  0
 16 18  1  0  0  0  0
 18 19  2  0  0  0  0
 19 20  1  0  0  0  0
 20 21  1  0  0  0  0
 21 22  1  0  0  0  0
 20 23  2  0  0  0  0
 15 23  1  0  0  0  0
  5 24  1  0  0  0  0
 24 25  2  0  0  0  0
  3 25  1  0  0  0  0
 25 26  1  0  0  0  0
 26 27  1  0  0  0  0
M  END
> <ID>
CPD_1480

$$$$
CPD_1485
  Mrv1822 09091914012D          

 26 27  0  0  1  0            999 V2000
   -2.0492   -0.6431    0.0000 C   0  0  0  0  0  0  0  0  0  0  0  0
   -1.2288   -0.7293    0.0000 C   0  0  0  0  0  0  0  0  0  0  0  0
   -0.8932   -1.4830    0.0000 N   0  0  0  0  0  0  0  0  0  0  0  0
   -0.0862   -1.6545    0.0000 N   0  0  0  0  0  0  0  0  0  0  0  0
    0.0000   -2.4750    0.0000 C   0  0  0  0  0  0  0  0  0  0  0  0
    0.7145   -2.8875    0.0000 N   0  0  0  0  0  0  0  0  0  0  0  0
    1.4289   -2.4750    0.0000 C   0  0  0  0  0  0  0  0  0  0  0  0
    1.4289   -1.6500    0.0000 O   0  0  0  0  0  0  0  0  0  0  0  0
    2.1434   -2.8875    0.0000 C   0  0  1  0  0  0  0  0  0  0  0  0
    2.1434   -3.7125    0.0000 N   0  0  0  0  0  0  0  0  0  0  0  0
    2.8579   -2.4750    0.0000 C   0  0  0  0  0  0  0  0  0  0  0  0
    3.5724   -2.8875    0.0000 C   0  0  0  0  0  0  0  0  0  0  0  0
    4.2868   -2.4750    0.0000 C   0  0  0  0  0  0  0  0  0  0  0  0
    5.0013   -2.8875    0.0000 C   0  0  0  0  0  0  0  0  0  0  0  0
    5.0013   -3.7125    0.0000 C   0  0  0  0  0  0  0  0  0  0  0  0
    5.7158   -4.1250    0.0000 O   0  0  0  0  0  0  0  0  0  0  0  0
    6.4302   -3.7125    0.0000 C   0  0  0  0  0  0  0  0  0  0  0  0
    7.1447   -3.3000    0.0000 C   0  0  0  0  0  0  0  0  0  0  0  0
    6.8427   -4.4270    0.0000 C   0  0  0  0  0  0  0  0  0  0  0  0
    6.0177   -2.9980    0.0000 C   0  0  0  0  0  0  0  0  0  0  0  0
    4.2868   -4.1250    0.0000 C   0  0  0  0  0  0  0  0  0  0  0  0
    3.5724   -3.7125    0.0000 C   0  0  0  0  0  0  0  0  0  0  0  0
   -0.7537   -2.8106    0.0000 C   0  0  0  0  0  0  0  0  0  0  0  0
   -1.3057   -2.1975    0.0000 C   0  0  0  0  0  0  0  0  0  0  0  0
   -2.1262   -2.2837    0.0000 C   0  0  0  0  0  0  0  0  0  0  0  0
   -2.6111   -1.6163    0.0000 O   0  0  0  0  0  0  0  0  0  0  0  0
  1  2  1  0  0  0  0
  2  3  1  0  0  0  0
  3  4  1  0  0  0  0
  4  5  2  0  0  0  0
  5  6  1  0  0  0  0
  6  7  1  0  0  0  0
  7  8  2  0  0  0  0
  9  7  1  0  0  0  0
  9 10  1  6  0  0  0
  9 11  1  0  0  0  0
 11 12  1  0  0  0  0
 12 13  2  0  0  0  0
 13 14  1  0  0  0  0
 14 15  2  0  0  0  0
 15 16  1  0  0  0  0
 16 17  1  0  0  0  0
 17 18  1  0  0  0  0
 17 19  1  0  0  0  0
 17 20  1  0  0  0  0
 15 21  1  0  0  0  0
 21 22  2  0  0  0  0
 12 22  1  0  0  0  0
  5 23  1  0  0  0  0
 23 24  2  0  0  0  0
  3 24  1  0  0  0  0
 24 25  1  0  0  0  0
 25 26  1  0  0  0  0
M  END
> <ID>
CPD_1485

$$$$
CPD_1490
  Mrv1822 09091914012D          

 27 30  0  0  0  0            999 V2000
    5.0848   -1.4324    0.0000 C   0  0  0  0  0  0  0  0  0  0  0  0
    5.4204   -0.6788    0.0000 N   0  0  0  0  0  0  0  0  0  0  0  0
    6.2408   -0.5925    0.0000 C   0  0  0  0  0  0  0  0  0  0  0  0
    6.7258   -1.2600    0.0000 C   0  0  0  0  0  0  0  0  0  0  0  0
    7.5508   -1.2600    0.0000 N   0  0  0  0  0  0  0  0  0  0  0  0
    7.8057   -2.0446    0.0000 N   0  0  0  0  0  0  0  0  0  0  0  0
    8.5903   -2.2995    0.0000 C   0  0  0  0  0  0  0  0  0  0  0  0
    7.1383   -2.5295    0.0000 C   0  0  0  0  0  0  0  0  0  0  0  0
    6.4708   -2.0446    0.0000 C   0  0  0  0  0  0  0  0  0  0  0  0
    7.1383   -3.3545    0.0000 C   0  0  0  0  0  0  0  0  0  0  0  0
    7.5508   -4.0690    0.0000 C   0  0  0  0  0  0  0  0  0  0  0  0
    6.7258   -4.0690    0.0000 C   0  0  0  0  0  0  0  0  0  0  0  0
    4.9354   -0.0113    0.0000 C   0  0  0  0  0  0  0  0  0  0  0  0
    5.2710    0.7424    0.0000 O   0  0  0  0  0  0  0  0  0  0  0  0
    4.1150   -0.0976    0.0000 C   0  0  0  0  0  0  0  0  0  0  0  0
    3.7794   -0.8512    0.0000 C   0  0  0  0  0  0  0  0  0  0  0  0
    2.9589   -0.9375    0.0000 C   0  0  0  0  0  0  0  0  0  0  0  0
    2.4740   -0.2700    0.0000 C   0  0  0  0  0  0  0  0  0  0  0  0
    2.8096    0.4837    0.0000 N   0  0  0  0  0  0  0  0  0  0  0  0
    2.3246    1.1511    0.0000 C   0  0  0  0  0  0  0  0  0  0  0  0
    2.6602    1.9048    0.0000 C   0  0  0  0  0  0  0  0  0  0  0  0
    2.1753    2.5722    0.0000 C   0  0  0  0  0  0  0  0  0  0  0  0
    2.5108    3.3259    0.0000 C   0  0  0  0  0  0  0  0  0  0  0  0
    3.3313    3.4121    0.0000 C   0  0  0  0  0  0  0  0  0  0  0  0
    3.8162    2.7447    0.0000 C   0  0  0  0  0  0  0  0  0  0  0  0
    3.4807    1.9910    0.0000 N   0  0  0  0  0  0  0  0  0  0  0  0
    3.6300    0.5699    0.0000 C   0  0  0  0  0  0  0  0  0  0  0  0
  1  2  1  0  0  0  0
  2  3  1  0  0  0  0
  3  4  1  0  0  0  0
  4  5  2  0  0  0  0
  5  6  1  0  0  0  0
  6  7  1  0  0  0  0
  6  8  1  0  0  0  0
  8  9  2  0  0  0  0
  4  9  1  0  0  0  0
  8 10  1  0  0  0  0
 10 11  1  0  0  0  0
 11 12  1  0  0  0  0
 10 12  1  0  0  0  0
  2 13  1  0  0  0  0
 13 14  2  0  0  0  0
 13 15  1  0  0  0  0
 15 16  1  0  0  0  0
 16 17  1  0  0  0  0
 17 18  1  0  0  0  0
 18 19  1  0  0  0  0
 19 20  1  0  0  0  0
 20 21  1  0  0  0  0
 21 22  2  0  0  0  0
 22 23  1  0  0  0  0
 23 24  2  0  0  0  0
 24 25  1  0  0  0  0
 25 26  2  0  0  0  0
 21 26  1  0  0  0  0
 19 27  1  0  0  0  0
 15 27  1  0  0  0  0
M  END
> <ID>
CPD_1490

$$$$
CPD_1495
  Mrv1822 09091914012D          

 20 22  0  0  0  0            999 V2000
    1.7540   -2.2771    0.0000 C   0  0  0  0  0  0  0  0  0  0  0  0
    1.7540   -1.4521    0.0000 N   0  0  0  0  0  0  0  0  0  0  0  0
    1.0396   -1.0396    0.0000 C   0  0  0  0  0  0  0  0  0  0  0  0
    0.3251   -1.4521    0.0000 C   0  0  0  0  0  0  0  0  0  0  0  0
    0.2389   -2.2725    0.0000 N   0  0  0  0  0  0  0  0  0  0  0  0
   -0.5681   -2.4441    0.0000 N   0  0  0  0  0  0  0  0  0  0  0  0
   -0.9037   -3.1977    0.0000 C   0  0  0  0  0  0  0  0  0  0  0  0
   -0.9806   -1.7296    0.0000 C   0  0  0  0  0  0  0  0  0  0  0  0
   -0.4286   -1.1165    0.0000 C   0  0  0  0  0  0  0  0  0  0  0  0
   -1.8011   -1.6434    0.0000 C   0  0  0  0  0  0  0  0  0  0  0  0
   -2.5548   -1.9789    0.0000 C   0  0  0  0  0  0  0  0  0  0  0  0
   -2.4685   -1.1584    0.0000 C   0  0  0  0  0  0  0  0  0  0  0  0
    2.4685   -1.0396    0.0000 C   0  0  0  0  0  0  0  0  0  0  0  0
    2.4685   -0.2146    0.0000 O   0  0  0  0  0  0  0  0  0  0  0  0
    3.1830   -1.4521    0.0000 C   0  0  0  0  0  0  0  0  0  0  0  0
    3.8974   -1.0396    0.0000 O   0  0  0  0  0  0  0  0  0  0  0  0
    4.6119   -1.4521    0.0000 C   0  0  0  0  0  0  0  0  0  0  0  0
    5.4088   -1.2385    0.0000 C   0  0  0  0  0  0  0  0  0  0  0  0
    5.6223   -2.0354    0.0000 O   0  0  0  0  0  0  0  0  0  0  0  0
    4.8254   -2.2489    0.0000 C   0  0  0  0  0  0  0  0  0  0  0  0
  1  2  1  0  0  0  0
  2  3  1  0  0  0  0
  3  4  1  0  0  0  0
  4  5  2  0  0  0  0
  5  6  1  0  0  0  0
  6  7  1  0  0  0  0
  6  8  1  0  0  0  0
  8  9  2  0  0  0  0
  4  9  1  0  0  0  0
  8 10  1  0  0  0  0
 10 11  1  0  0  0  0
 11 12  1  0  0  0  0
 10 12  1  0  0  0  0
  2 13  1  0  0  0  0
 13 14  2  0  0  0  0
 13 15  1  0  0  0  0
 15 16  1  0  0  0  0
 16 17  1  0  0  0  0
 17 18  1  0  0  0  0
 18 19  1  0  0  0  0
 19 20  1  0  0  0  0
 17 20  1  0  0  0  0
M  END
> <ID>
CPD_1495

$$$$
CPD_1500
  Mrv1822 09091914012D          

 29 31  0  0  1  0            999 V2000
   -0.7145   -0.4125    0.0000 C   0  0  0  0  0  0  0  0  0  0  0  0
   -0.7145   -1.2375    0.0000 N   0  0  0  0  0  0  0  0  0  0  0  0
   -1.4289   -1.6500    0.0000 C   0  0  0  0  0  0  0  0  0  0  0  0
   -2.1434   -1.2375    0.0000 C   0  0  0  0  0  0  0  0  0  0  0  0
   -2.8971   -1.5731    0.0000 N   0  0  0  0  0  0  0  0  0  0  0  0
   -3.4491   -0.9600    0.0000 N   0  0  0  0  0  0  0  0  0  0  0  0
   -4.2696   -1.0462    0.0000 C   0  0  0  0  0  0  0  0  0  0  0  0
   -3.0366   -0.2455    0.0000 C   0  0  0  0  0  0  0  0  0  0  0  0
   -2.2296   -0.4170    0.0000 C   0  0  0  0  0  0  0  0  0  0  0  0
   -3.3722    0.5082    0.0000 C   0  0  0  0  0  0  0  0  0  0  0  0
   -4.0396    0.9931    0.0000 C   0  0  0  0  0  0  0  0  0  0  0  0
   -3.2859    1.3287    0.0000 C   0  0  0  0  0  0  0  0  0  0  0  0
    0.0000   -1.6500    0.0000 C   0  0  0  0  0  0  0  0  0  0  0  0
    0.0000   -2.4750    0.0000 O   0  0  0  0  0  0  0  0  0  0  0  0
    0.7145   -1.2375    0.0000 C   0  0  1  0  0  0  0  0  0  0  0  0
    1.4289   -1.6500    0.0000 N   0  0  0  0  0  0  0  0  0  0  0  0
    2.1434   -1.2375    0.0000 C   0  0  0  0  0  0  0  0  0  0  0  0
    2.1434   -0.4125    0.0000 O   0  0  0  0  0  0  0  0  0  0  0  0
    2.8579   -1.6500    0.0000 O   0  0  0  0  0  0  0  0  0  0  0  0
    3.5724   -1.2375    0.0000 C   0  0  0  0  0  0  0  0  0  0  0  0
    4.2868   -0.8250    0.0000 C   0  0  0  0  0  0  0  0  0  0  0  0
    3.9849   -1.9520    0.0000 C   0  0  0  0  0  0  0  0  0  0  0  0
    3.1599   -0.5230    0.0000 C   0  0  0  0  0  0  0  0  0  0  0  0
    0.7145   -0.4125    0.0000 C   0  0  0  0  0  0  0  0  0  0  0  0
    0.0000   -0.0000    0.0000 C   0  0  0  0  0  0  0  0  0  0  0  0
    0.0000    0.8250    0.0000 C   0  0  0  0  0  0  0  0  0  0  0  0
    0.7145    1.2375    0.0000 C   0  0  0  0  0  0  0  0  0  0  0  0
    1.4289    0.8250    0.0000 C   0  0  0  0  0  0  0  0  0  0  0  0
    1.4289    0.0000    0.0000 C   0  0  0  0  0  0  0  0  0  0  0  0
  1  2  1  0  0  0  0
  2  3  1  0  0  0  0
  3  4  1  0  0  0  0
  4  5  2  0  0  0  0
  5  6  1  0  0  0  0
  6  7  1  0  0  0  0
  6  8  1  0  0  0  0
  8  9  2  0  0  0  0
  4  9  1  0  0  0  0
  8 10  1  0  0  0  0
 10 11  1  0  0  0  0
 11 12  1  0  0  0  0
 10 12  1  0  0  0  0
  2 13  1  0  0  0  0
 13 14  2  0  0  0  0
 15 13  1  0  0  0  0
 15 16  1  6  0  0  0
 16 17  1  0  0  0  0
 17 18  2  0  0  0  0
 17 19  1  0  0  0  0
 19 20  1  0  0  0  0
 20 21  1  0  0  0  0
 20 22  1  0  0  0  0
 20 23  1  0  0  0  0
 15 24  1  0  0  0  0
 24 25  1  0  0  0  0
 25 26  1  0  0  0  0
 26 27  1  0  0  0  0
 27 28  1  0  0  0  0
 28 29  1  0  0  0  0
 24 29  1  0  0  0  0
M  END
> <ID>
CPD_1500

$$$$
CPD_1505
  Mrv1822 09091914012D          

 19 19  0  0  1  0            999 V2000
    4.2868   -2.4750    0.0000 C   0  0  0  0  0  0  0  0  0  0  0  0
    3.5724   -2.8875    0.0000 N   0  0  0  0  0  0  0  0  0  0  0  0
    3.5724   -3.7125    0.0000 C   0  0  1  0  0  0  0  0  0  0  0  0
    2.8579   -4.1250    0.0000 C   0  0  0  0  0  0  0  0  0  0  0  0
    2.1434   -3.7125    0.0000 C   0  0  0  0  0  0  0  0  0  0  0  0
    1.4289   -4.1250    0.0000 C   0  0  0  0  0  0  0  0  0  0  0  0
    2.1434   -2.8875    0.0000 C   0  0  0  0  0  0  0  0  0  0  0  0
    4.2868   -4.1250    0.0000 C   0  0  0  0  0  0  0  0  0  0  0  0
    4.2868   -4.9500    0.0000 O   0  0  0  0  0  0  0  0  0  0  0  0
    5.0013   -3.7125    0.0000 N   0  0  0  0  0  0  0  0  0  0  0  0
    5.7158   -4.1250    0.0000 C   0  0  0  0  0  0  0  0  0  0  0  0
    6.4302   -3.7125    0.0000 C   0  0  0  0  0  0  0  0  0  0  0  0
    6.4302   -2.8875    0.0000 Cl  0  0  0  0  0  0  0  0  0  0  0  0
    7.1447   -4.1250    0.0000 C   0  0  0  0  0  0  0  0  0  0  0  0
    7.8592   -3.7125    0.0000 Cl  0  0  0  0  0  0  0  0  0  0  0  0
    7.1447   -4.9500    0.0000 C   0  0  0  0  0  0  0  0  0  0  0  0
    7.8592   -5.3625    0.0000 O   0  0  0  0  0  0  0  0  0  0  0  0
    6.4302   -5.3625    0.0000 C   0  0  0  0  0  0  0  0  0  0  0  0
    5.7158   -4.9500    0.0000 C   0  0  0  0  0  0  0  0  0  0  0  0
  1  2  1  0  0  0  0
  3  2  1  6  0  0  0
  3  4  1  0  0  0  0
  4  5  1  0  0  0  0
  5  6  1  0  0  0  0
  5  7  1  0  0  0  0
  3  8  1  0  0  0  0
  8  9  2  0  0  0  0
  8 10  1  0  0  0  0
 10 11  1  0  0  0  0
 11 12  2  0  0  0  0
 12 13  1  0  0  0  0
 12 14  1  0  0  0  0
 14 15  1  0  0  0  0
 14 16  2  0  0  0  0
 16 17  1  0  0  0  0
 16 18  1  0  0  0  0
 18 19  2  0  0  0  0
 11 19  1  0  0  0  0
M  END
> <ID>
CPD_1505

$$$$
CPD_1510
  Mrv1822 09091914012D          

 17 17  0  0  0  0            999 V2000
    0.7145   -3.7125    0.0000 C   0  0  0  0  0  0  0  0  0  0  0  0
    1.4289   -4.1250    0.0000 C   0  0  0  0  0  0  0  0  0  0  0  0
    2.1434   -3.7125    0.0000 C   0  0  0  0  0  0  0  0  0  0  0  0
    2.8579   -4.1250    0.0000 C   0  0  0  0  0  0  0  0  0  0  0  0
    3.5724   -3.7125    0.0000 C   0  0  0  0  0  0  0  0  0  0  0  0
    4.2868   -4.1250    0.0000 C   0  0  0  0  0  0  0  0  0  0  0  0
    4.2868   -4.9500    0.0000 O   0  0  0  0  0  0  0  0  0  0  0  0
    5.0013   -3.7125    0.0000 N   0  0  0  0  0  0  0  0  0  0  0  0
    5.7158   -4.1250    0.0000 C   0  0  0  0  0  0  0  0  0  0  0  0
    6.4302   -3.7125    0.0000 C   0  0  0  0  0  0  0  0  0  0  0  0
    6.4302   -2.8875    0.0000 Cl  0  0  0  0  0  0  0  0  0  0  0  0
    7.1447   -4.1250    0.0000 C   0  0  0  0  0  0  0  0  0  0  0  0
    7.8592   -3.7125    0.0000 Cl  0  0  0  0  0  0  0  0  0  0  0  0
    7.1447   -4.9500    0.0000 C   0  0  0  0  0  0  0  0  0  0  0  0
    7.8592   -5.3625    0.0000 O   0  0  0  0  0  0  0  0  0  0  0  0
    6.4302   -5.3625    0.0000 C   0  0  0  0  0  0  0  0  0  0  0  0
    5.7158   -4.9500    0.0000 C   0  0  0  0  0  0  0  0  0  0  0  0
  1  2  1  0  0  0  0
  2  3  1  0  0  0  0
  3  4  1  0  0  0  0
  4  5  1  0  0  0  0
  5  6  1  0  0  0  0
  6  7  2  0  0  0  0
  6  8  1  0  0  0  0
  8  9  1  0  0  0  0
  9 10  2  0  0  0  0
 10 11  1  0  0  0  0
 10 12  1  0  0  0  0
 12 13  1  0  0  0  0
 12 14  2  0  0  0  0
 14 15  1  0  0  0  0
 14 16  1  0  0  0  0
 16 17  2  0  0  0  0
  9 17  1  0  0  0  0
M  END
> <ID>
CPD_1510

$$$$
CPD_1515
  Mrv1822 09091914012D          

 31 34  0  0  0  0            999 V2000
   -1.9341   -5.4833    0.0000 F   0  0  0  0  0  0  0  0  0  0  0  0
   -1.9341   -6.3083    0.0000 C   0  0  0  0  0  0  0  0  0  0  0  0
   -2.6486   -6.7208    0.0000 F   0  0  0  0  0  0  0  0  0  0  0  0
   -1.2197   -6.7208    0.0000 C   0  0  0  0  0  0  0  0  0  0  0  0
   -1.2197   -7.5458    0.0000 N   0  0  0  0  0  0  0  0  0  0  0  0
   -0.6363   -8.1292    0.0000 C   0  0  0  0  0  0  0  0  0  0  0  0
   -1.2197   -8.7125    0.0000 C   0  0  0  0  0  0  0  0  0  0  0  0
   -1.8030   -8.1292    0.0000 C   0  0  0  0  0  0  0  0  0  0  0  0
   -1.2197   -9.5375    0.0000 N   0  0  0  0  0  0  0  0  0  0  0  0
   -0.5052   -9.9500    0.0000 C   0  0  0  0  0  0  0  0  0  0  0  0
    0.2093   -9.5375    0.0000 O   0  0  0  0  0  0  0  0  0  0  0  0
   -0.5052  -10.7750    0.0000 C   0  0  0  0  0  0  0  0  0  0  0  0
    0.2093  -11.1875    0.0000 C   0  0  0  0  0  0  0  0  0  0  0  0
    0.2093  -12.0125    0.0000 C   0  0  0  0  0  0  0  0  0  0  0  0
   -0.5052  -12.4250    0.0000 C   0  0  0  0  0  0  0  0  0  0  0  0
   -1.2197  -12.0125    0.0000 N   0  0  0  0  0  0  0  0  0  0  0  0
   -1.2197  -11.1875    0.0000 C   0  0  0  0  0  0  0  0  0  0  0  0
    0.9237  -12.4250    0.0000 C   0  0  0  0  0  0  0  0  0  0  0  0
    1.6382  -12.0125    0.0000 C   0  0  0  0  0  0  0  0  0  0  0  0
    2.3527  -12.4250    0.0000 C   0  0  0  0  0  0  0  0  0  0  0  0
    2.3527  -13.2500    0.0000 C   0  0  0  0  0  0  0  0  0  0  0  0
    3.0671  -13.6625    0.0000 O   0  0  0  0  0  0  0  0  0  0  0  0
    3.7816  -13.2500    0.0000 C   0  0  0  0  0  0  0  0  0  0  0  0
    4.4961  -13.6625    0.0000 C   0  0  0  0  0  0  0  0  0  0  0  0
    5.2106  -13.2500    0.0000 C   0  0  0  0  0  0  0  0  0  0  0  0
    5.9250  -13.6625    0.0000 C   0  0  0  0  0  0  0  0  0  0  0  0
    5.9250  -14.4875    0.0000 C   0  0  0  0  0  0  0  0  0  0  0  0
    5.2106  -14.9000    0.0000 C   0  0  0  0  0  0  0  0  0  0  0  0
    4.4961  -14.4875    0.0000 C   0  0  0  0  0  0  0  0  0  0  0  0
    1.6382  -13.6625    0.0000 C   0  0  0  0  0  0  0  0  0  0  0  0
    0.9237  -13.2500    0.0000 C   0  0  0  0  0  0  0  0  0  0  0  0
  1  2  1  0  0  0  0
  2  3  1  0  0  0  0
  2  4  1  0  0  0  0
  4  5  1  0  0  0  0
  5  6  1  0  0  0  0
  6  7  1  0  0  0  0
  7  8  1  0  0  0  0
  5  8  1  0  0  0  0
  7  9  1  0  0  0  0
  9 10  1  0  0  0  0
 10 11  2  0  0  0  0
 10 12  1  0  0  0  0
 12 13  2  0  0  0  0
 13 14  1  0  0  0  0
 14 15  2  0  0  0  0
 15 16  1  0  0  0  0
 16 17  2  0  0  0  0
 12 17  1  0  0  0  0
 14 18  1  0  0  0  0
 18 19  2  0  0  0  0
 19 20  1  0  0  0  0
 20 21  2  0  0  0  0
 21 22  1  0  0  0  0
 22 23  1  0  0  0  0
 23 24  1  0  0  0  0
 24 25  2  0  0  0  0
 25 26  1  0  0  0  0
 26 27  2  0  0  0  0
 27 28  1  0  0  0  0
 28 29  2  0  0  0  0
 24 29  1  0  0  0  0
 21 30  1  0  0  0  0
 30 31  2  0  0  0  0
 18 31  1  0  0  0  0
M  END
> <ID>
CPD_1515

$$$$
CPD_1520
  Mrv1822 09091914012D          

 23 24  0  0  0  0            999 V2000
    0.4125   -2.3645    0.0000 C   0  0  0  0  0  0  0  0  0  0  0  0
    0.0000   -1.6500    0.0000 C   0  0  0  0  0  0  0  0  0  0  0  0
   -0.8250   -1.6500    0.0000 C   0  0  0  0  0  0  0  0  0  0  0  0
    0.4125   -0.9355    0.0000 N   0  0  0  0  0  0  0  0  0  0  0  0
    1.2375   -0.9355    0.0000 C   0  0  0  0  0  0  0  0  0  0  0  0
    1.6500   -0.2211    0.0000 O   0  0  0  0  0  0  0  0  0  0  0  0
    1.6500   -1.6500    0.0000 C   0  0  0  0  0  0  0  0  0  0  0  0
    2.4750   -1.6500    0.0000 O   0  0  0  0  0  0  0  0  0  0  0  0
    2.8875   -2.3645    0.0000 C   0  0  0  0  0  0  0  0  0  0  0  0
    3.7125   -2.3645    0.0000 C   0  0  0  0  0  0  0  0  0  0  0  0
    4.1250   -3.0789    0.0000 C   0  0  0  0  0  0  0  0  0  0  0  0
    3.7125   -3.7934    0.0000 C   0  0  0  0  0  0  0  0  0  0  0  0
    4.1250   -4.5079    0.0000 Cl  0  0  0  0  0  0  0  0  0  0  0  0
    2.8875   -3.7934    0.0000 C   0  0  0  0  0  0  0  0  0  0  0  0
    2.4750   -3.0789    0.0000 C   0  0  0  0  0  0  0  0  0  0  0  0
    0.0000   -0.2211    0.0000 C   0  0  0  0  0  0  0  0  0  0  0  0
   -0.8250   -0.2211    0.0000 N   0  0  0  0  0  0  0  0  0  0  0  0
   -1.2375    0.4934    0.0000 C   0  0  0  0  0  0  0  0  0  0  0  0
   -0.8250    1.2079    0.0000 C   0  0  0  0  0  0  0  0  0  0  0  0
   -1.2375    1.9224    0.0000 C   0  0  0  0  0  0  0  0  0  0  0  0
    0.0000    1.2079    0.0000 C   0  0  0  0  0  0  0  0  0  0  0  0
    0.4125    0.4934    0.0000 C   0  0  0  0  0  0  0  0  0  0  0  0
    1.2375    0.4934    0.0000 N   0  0  0  0  0  0  0  0  0  0  0  0
  1  2  1  0  0  0  0
  2  3  1  0  0  0  0
  2  4  1  0  0  0  0
  4  5  1  0  0  0  0
  5  6  2  0  0  0  0
  5  7  1  0  0  0  0
  7  8  1  0  0  0  0
  8  9  1  0  0  0  0
  9 10  2  0  0  0  0
 10 11  1  0  0  0  0
 11 12  2  0  0  0  0
 12 13  1  0  0  0  0
 12 14  1  0  0  0  0
 14 15  2  0  0  0  0
  9 15  1  0  0  0  0
  4 16  1  0  0  0  0
 16 17  2  0  0  0  0
 17 18  1  0  0  0  0
 18 19  2  0  0  0  0
 19 20  1  0  0  0  0
 19 21  1  0  0  0  0
 21 22  2  0  0  0  0
 16 22  1  0  0  0  0
 22 23  1  0  0  0  0
M  END
> <ID>
CPD_1520

$$$$
CPD_1525
  Mrv1822 09091914012D          

 23 24  0  0  0  0            999 V2000
    2.1434   -1.2375    0.0000 C   0  0  0  0  0  0  0  0  0  0  0  0
    2.1434   -2.0625    0.0000 C   0  0  0  0  0  0  0  0  0  0  0  0
    1.4289   -2.4750    0.0000 N   0  0  0  0  0  0  0  0  0  0  0  0
    1.4289   -3.3000    0.0000 C   0  0  0  0  0  0  0  0  0  0  0  0
    2.1434   -3.7125    0.0000 N   0  0  0  0  0  0  0  0  0  0  0  0
    2.1434   -4.5375    0.0000 C   0  0  0  0  0  0  0  0  0  0  0  0
    1.4289   -4.9500    0.0000 C   0  0  0  0  0  0  0  0  0  0  0  0
    1.4289   -5.7750    0.0000 C   0  0  0  0  0  0  0  0  0  0  0  0
    0.7145   -4.5375    0.0000 C   0  0  0  0  0  0  0  0  0  0  0  0
    0.7145   -3.7125    0.0000 C   0  0  0  0  0  0  0  0  0  0  0  0
    0.0000   -3.3000    0.0000 N   0  0  0  0  0  0  0  0  0  0  0  0
   -0.7145   -3.7125    0.0000 C   0  0  0  0  0  0  0  0  0  0  0  0
   -0.7145   -4.5375    0.0000 O   0  0  0  0  0  0  0  0  0  0  0  0
   -1.4289   -3.3000    0.0000 C   0  0  0  0  0  0  0  0  0  0  0  0
   -1.0164   -2.5855    0.0000 C   0  0  0  0  0  0  0  0  0  0  0  0
   -1.8414   -4.0145    0.0000 C   0  0  0  0  0  0  0  0  0  0  0  0
   -2.1434   -2.8875    0.0000 C   0  0  0  0  0  0  0  0  0  0  0  0
   -2.8579   -3.3000    0.0000 C   0  0  0  0  0  0  0  0  0  0  0  0
   -3.5724   -2.8875    0.0000 C   0  0  0  0  0  0  0  0  0  0  0  0
   -3.5724   -2.0625    0.0000 C   0  0  0  0  0  0  0  0  0  0  0  0
   -2.8579   -1.6500    0.0000 C   0  0  0  0  0  0  0  0  0  0  0  0
   -2.8579   -0.8250    0.0000 F   0  0  0  0  0  0  0  0  0  0  0  0
   -2.1434   -2.0625    0.0000 C   0  0  0  0  0  0  0  0  0  0  0  0
  1  2  1  0  0  0  0
  2  3  1  0  0  0  0
  3  4  1  0  0  0  0
  4  5  2  0  0  0  0
  5  6  1  0  0  0  0
  6  7  2  0  0  0  0
  7  8  1  0  0  0  0
  7  9  1  0  0  0  0
  9 10  2  0  0  0  0
  4 10  1  0  0  0  0
 10 11  1  0  0  0  0
 11 12  1  0  0  0  0
 12 13  2  0  0  0  0
 12 14  1  0  0  0  0
 14 15  1  0  0  0  0
 14 16  1  0  0  0  0
 14 17  1  0  0  0  0
 17 18  2  0  0  0  0
 18 19  1  0  0  0  0
 19 20  2  0  0  0  0
 20 21  1  0  0  0  0
 21 22  1  0  0  0  0
 21 23  2  0  0  0  0
 17 23  1  0  0  0  0
M  END
> <ID>
CPD_1525

$$$$
CPD_1530
  Mrv1822 09091914012D          

 19 19  0  0  1  0            999 V2000
   -0.0000   -2.4750    0.0000 C   0  0  0  0  0  0  0  0  0  0  0  0
    0.0000   -1.6500    0.0000 C   0  0  0  0  0  0  0  0  0  0  0  0
    0.7145   -1.2375    0.0000 N   0  0  0  0  0  0  0  0  0  0  0  0
    0.7145   -0.4125    0.0000 C   0  0  0  0  0  0  0  0  0  0  0  0
    0.0000    0.0000    0.0000 N   0  0  0  0  0  0  0  0  0  0  0  0
    0.0000    0.8250    0.0000 C   0  0  0  0  0  0  0  0  0  0  0  0
    0.7145    1.2375    0.0000 C   0  0  0  0  0  0  0  0  0  0  0  0
    0.7145    2.0625    0.0000 C   0  0  0  0  0  0  0  0  0  0  0  0
    1.4289    0.8250    0.0000 C   0  0  0  0  0  0  0  0  0  0  0  0
    1.4289    0.0000    0.0000 C   0  0  0  0  0  0  0  0  0  0  0  0
    2.1434   -0.4125    0.0000 N   0  0  0  0  0  0  0  0  0  0  0  0
    2.8579    0.0000    0.0000 C   0  0  0  0  0  0  0  0  0  0  0  0
    2.8579    0.8250    0.0000 O   0  0  0  0  0  0  0  0  0  0  0  0
    3.5724   -0.4125    0.0000 C   0  0  0  0  0  0  0  0  0  0  0  0
    4.2868    0.0000    0.0000 C   0  0  1  0  0  0  0  0  0  0  0  0
    4.2868    0.8250    0.0000 C   0  0  0  0  0  0  0  0  0  0  0  0
    5.0013   -0.4125    0.0000 C   0  0  0  0  0  0  0  0  0  0  0  0
    5.7158    0.0000    0.0000 O   0  0  0  0  0  0  0  0  0  0  0  0
    5.0013   -1.2375    0.0000 O   0  0  0  0  0  0  0  0  0  0  0  0
  1  2  1  0  0  0  0
  2  3  1  0  0  0  0
  3  4  1  0  0  0  0
  4  5  2  0  0  0  0
  5  6  1  0  0  0  0
  6  7  2  0  0  0  0
  7  8  1  0  0  0  0
  7  9  1  0  0  0  0
  9 10  2  0  0  0  0
  4 10  1  0  0  0  0
 10 11  1  0  0  0  0
 11 12  1  0  0  0  0
 12 13  2  0  0  0  0
 12 14  1  0  0  0  0
 15 14  1  0  0  0  0
 15 16  1  1  0  0  0
 15 17  1  0  0  0  0
 17 18  1  0  0  0  0
 17 19  2  0  0  0  0
M  END
> <ID>
CPD_1530

$$$$
CPD_1535
  Mrv1822 09091914012D          

 20 21  0  0  0  0            999 V2000
    0.0000   -2.4750    0.0000 C   0  0  0  0  0  0  0  0  0  0  0  0
    0.7145   -2.0625    0.0000 C   0  0  0  0  0  0  0  0  0  0  0  0
    0.7145   -1.2375    0.0000 N   0  0  0  0  0  0  0  0  0  0  0  0
    1.4289   -0.8250    0.0000 C   0  0  0  0  0  0  0  0  0  0  0  0
    1.4289   -0.0000    0.0000 O   0  0  0  0  0  0  0  0  0  0  0  0
    2.1434   -1.2375    0.0000 C   0  0  0  0  0  0  0  0  0  0  0  0
    2.8579   -0.8250    0.0000 C   0  0  0  0  0  0  0  0  0  0  0  0
    2.8579    0.0000    0.0000 C   0  0  0  0  0  0  0  0  0  0  0  0
    3.5724    0.4125    0.0000 C   0  0  0  0  0  0  0  0  0  0  0  0
    4.2868    0.0000    0.0000 O   0  0  0  0  0  0  0  0  0  0  0  0
    4.2868   -0.8250    0.0000 C   0  0  0  0  0  0  0  0  0  0  0  0
    3.5724   -1.2375    0.0000 C   0  0  0  0  0  0  0  0  0  0  0  0
    0.0000   -0.8250    0.0000 C   0  0  0  0  0  0  0  0  0  0  0  0
   -0.7145   -1.2375    0.0000 N   0  0  0  0  0  0  0  0  0  0  0  0
   -1.4289   -0.8250    0.0000 C   0  0  0  0  0  0  0  0  0  0  0  0
   -1.4289   -0.0000    0.0000 C   0  0  0  0  0  0  0  0  0  0  0  0
   -2.1434    0.4125    0.0000 C   0  0  0  0  0  0  0  0  0  0  0  0
   -0.7145    0.4125    0.0000 C   0  0  0  0  0  0  0  0  0  0  0  0
    0.0000   -0.0000    0.0000 C   0  0  0  0  0  0  0  0  0  0  0  0
    0.7145    0.4125    0.0000 N   0  0  0  0  0  0  0  0  0  0  0  0
  1  2  1  0  0  0  0
  2  3  1  0  0  0  0
  3  4  1  0  0  0  0
  4  5  2  0  0  0  0
  4  6  1  0  0  0  0
  6  7  1  0  0  0  0
  7  8  1  0  0  0  0
  8  9  1  0  0  0  0
  9 10  1  0  0  0  0
 10 11  1  0  0  0  0
 11 12  1  0  0  0  0
  7 12  1  0  0  0  0
  3 13  1  0  0  0  0
 13 14  2  0  0  0  0
 14 15  1  0  0  0  0
 15 16  2  0  0  0  0
 16 17  1  0  0  0  0
 16 18  1  0  0  0  0
 18 19  2  0  0  0  0
 13 19  1  0  0  0  0
 19 20  1  0  0  0  0
M  END
> <ID>
CPD_1535

$$$$
CPD_1540
  Mrv1822 09091914012D          

 28 30  0  0  0  0            999 V2000
   -4.3409    0.0165    0.0000 C   0  0  0  0  0  0  0  0  0  0  0  0
   -3.9284    0.7310    0.0000 C   0  0  0  0  0  0  0  0  0  0  0  0
   -3.1034    0.7310    0.0000 N   0  0  0  0  0  0  0  0  0  0  0  0
   -2.6909    1.4455    0.0000 C   0  0  0  0  0  0  0  0  0  0  0  0
   -3.1034    2.1599    0.0000 N   0  0  0  0  0  0  0  0  0  0  0  0
   -2.6909    2.8744    0.0000 C   0  0  0  0  0  0  0  0  0  0  0  0
   -1.8659    2.8744    0.0000 C   0  0  0  0  0  0  0  0  0  0  0  0
   -1.4534    3.5889    0.0000 C   0  0  0  0  0  0  0  0  0  0  0  0
   -1.4534    2.1599    0.0000 C   0  0  0  0  0  0  0  0  0  0  0  0
   -1.8659    1.4455    0.0000 C   0  0  0  0  0  0  0  0  0  0  0  0
   -1.4534    0.7310    0.0000 N   0  0  0  0  0  0  0  0  0  0  0  0
   -1.8659    0.0165    0.0000 C   0  0  0  0  0  0  0  0  0  0  0  0
   -2.6909    0.0165    0.0000 O   0  0  0  0  0  0  0  0  0  0  0  0
   -1.4534   -0.6979    0.0000 C   0  0  0  0  0  0  0  0  0  0  0  0
   -0.6284   -0.6979    0.0000 C   0  0  0  0  0  0  0  0  0  0  0  0
   -0.1435   -1.3654    0.0000 N   0  0  0  0  0  0  0  0  0  0  0  0
    0.6411   -1.1104    0.0000 N   0  0  0  0  0  0  0  0  0  0  0  0
    0.6411   -0.2854    0.0000 C   0  0  0  0  0  0  0  0  0  0  0  0
   -0.1435   -0.0305    0.0000 N   0  0  0  0  0  0  0  0  0  0  0  0
    1.3556    0.1271    0.0000 N   0  0  0  0  0  0  0  0  0  0  0  0
    2.0701   -0.2854    0.0000 C   0  0  0  0  0  0  0  0  0  0  0  0
    2.7845    0.1271    0.0000 C   0  0  0  0  0  0  0  0  0  0  0  0
    2.0701   -1.1104    0.0000 C   0  0  0  0  0  0  0  0  0  0  0  0
    1.3556   -1.5229    0.0000 C   0  0  0  0  0  0  0  0  0  0  0  0
    1.3556   -2.3479    0.0000 C   0  0  0  0  0  0  0  0  0  0  0  0
    1.3556   -3.1729    0.0000 F   0  0  0  0  0  0  0  0  0  0  0  0
    0.5306   -2.3479    0.0000 F   0  0  0  0  0  0  0  0  0  0  0  0
    2.1806   -2.3479    0.0000 F   0  0  0  0  0  0  0  0  0  0  0  0
  1  2  1  0  0  0  0
  2  3  1  0  0  0  0
  3  4  1  0  0  0  0
  4  5  2  0  0  0  0
  5  6  1  0  0  0  0
  6  7  2  0  0  0  0
  7  8  1  0  0  0  0
  7  9  1  0  0  0  0
  9 10  2  0  0  0  0
  4 10  1  0  0  0  0
 10 11  1  0  0  0  0
 11 12  1  0  0  0  0
 12 13  2  0  0  0  0
 12 14  1  0  0  0  0
 14 15  1  0  0  0  0
 15 16  2  0  0  0  0
 16 17  1  0  0  0  0
 17 18  1  0  0  0  0
 18 19  2  0  0  0  0
 15 19  1  0  0  0  0
 18 20  1  0  0  0  0
 20 21  2  0  0  0  0
 21 22  1  0  0  0  0
 21 23  1  0  0  0  0
 23 24  2  0  0  0  0
 17 24  1  0  0  0  0
 24 25  1  0  0  0  0
 25 26  1  0  0  0  0
 25 27  1  0  0  0  0
 25 28  1  0  0  0  0
M  END
> <ID>
CPD_1540

$$$$
CPD_1545
  Mrv1822 09091914012D          

 36 41  0  0  0  0            999 V2000
    4.5181    1.5695    0.0000 O   0  0  0  0  0  0  0  0  0  0  0  0
    3.8037    1.1570    0.0000 C   0  0  0  0  0  0  0  0  0  0  0  0
    3.0892    1.5695    0.0000 C   0  0  0  0  0  0  0  0  0  0  0  0
    3.0892    2.3945    0.0000 S   0  0  0  0  0  0  0  0  0  0  0  0
    2.3747    2.8070    0.0000 C   0  0  0  0  0  0  0  0  0  0  0  0
    1.6210    2.4714    0.0000 N   0  0  0  0  0  0  0  0  0  0  0  0
    1.0690    3.0845    0.0000 N   0  0  0  0  0  0  0  0  0  0  0  0
    1.4815    3.7990    0.0000 C   0  0  0  0  0  0  0  0  0  0  0  0
    1.1460    4.5527    0.0000 N   0  0  0  0  0  0  0  0  0  0  0  0
    0.3255    4.6389    0.0000 C   0  0  0  0  0  0  0  0  0  0  0  0
   -0.1594    3.9715    0.0000 O   0  0  0  0  0  0  0  0  0  0  0  0
   -0.0101    5.3926    0.0000 C   0  0  0  0  0  0  0  0  0  0  0  0
   -0.8306    5.4788    0.0000 C   0  0  0  0  0  0  0  0  0  0  0  0
   -1.1661    6.2325    0.0000 C   0  0  0  0  0  0  0  0  0  0  0  0
   -1.9507    6.4874    0.0000 C   0  0  0  0  0  0  0  0  0  0  0  0
   -1.9507    7.3124    0.0000 N   0  0  0  0  0  0  0  0  0  0  0  0
   -1.1661    7.5674    0.0000 C   0  0  0  0  0  0  0  0  0  0  0  0
   -0.6812    6.8999    0.0000 N   0  0  0  0  0  0  0  0  0  0  0  0
    0.1393    6.8137    0.0000 C   0  0  0  0  0  0  0  0  0  0  0  0
    0.4748    6.0600    0.0000 C   0  0  0  0  0  0  0  0  0  0  0  0
    2.2885    3.6275    0.0000 S   0  0  0  0  0  0  0  0  0  0  0  0
    3.8037    0.3320    0.0000 N   0  0  0  0  0  0  0  0  0  0  0  0
    4.5470   -0.0260    0.0000 C   0  0  0  0  0  0  0  0  0  0  0  0
    5.1517    0.5352    0.0000 C   0  0  0  0  0  0  0  0  0  0  0  0
    5.9401    0.2920    0.0000 C   0  0  0  0  0  0  0  0  0  0  0  0
    6.1237   -0.5123    0.0000 C   0  0  0  0  0  0  0  0  0  0  0  0
    5.5189   -1.0735    0.0000 C   0  0  0  0  0  0  0  0  0  0  0  0
    4.7305   -0.8303    0.0000 C   0  0  0  0  0  0  0  0  0  0  0  0
    4.2162   -1.4753    0.0000 C   0  0  0  0  0  0  0  0  0  0  0  0
    3.3912   -1.4753    0.0000 C   0  0  0  0  0  0  0  0  0  0  0  0
    2.8768   -0.8303    0.0000 C   0  0  0  0  0  0  0  0  0  0  0  0
    3.0604   -0.0260    0.0000 C   0  0  0  0  0  0  0  0  0  0  0  0
    2.4556    0.5352    0.0000 C   0  0  0  0  0  0  0  0  0  0  0  0
    1.6673    0.2920    0.0000 C   0  0  0  0  0  0  0  0  0  0  0  0
    1.4837   -0.5123    0.0000 C   0  0  0  0  0  0  0  0  0  0  0  0
    2.0884   -1.0735    0.0000 C   0  0  0  0  0  0  0  0  0  0  0  0
  1  2  2  0  0  0  0
  2  3  1  0  0  0  0
  3  4  1  0  0  0  0
  4  5  1  0  0  0  0
  5  6  2  0  0  0  0
  6  7  1  0  0  0  0
  7  8  2  0  0  0  0
  8  9  1  0  0  0  0
  9 10  1  0  0  0  0
 10 11  2  0  0  0  0
 10 12  1  0  0  0  0
 12 13  2  0  0  0  0
 13 14  1  0  0  0  0
 14 15  2  0  0  0  0
 15 16  1  0  0  0  0
 16 17  2  0  0  0  0
 17 18  1  0  0  0  0
 14 18  1  0  0  0  0
 18 19  1  0  0  0  0
 19 20  2  0  0  0  0
 12 20  1  0  0  0  0
  8 21  1  0  0  0  0
  5 21  1  0  0  0  0
  2 22  1  0  0  0  0
 22 23  1  0  0  0  0
 23 24  2  0  0  0  0
 24 25  1  0  0  0  0
 25 26  2  0  0  0  0
 26 27  1  0  0  0  0
 27 28  2  0  0  0  0
 23 28  1  0  0  0  0
 28 29  1  0  0  0  0
 29 30  1  0  0  0  0
 30 31  1  0  0  0  0
 31 32  2  0  0  0  0
 22 32  1  0  0  0  0
 32 33  1  0  0  0  0
 33 34  2  0  0  0  0
 34 35  1  0  0  0  0
 35 36  2  0  0  0  0
 31 36  1  0  0  0  0
M  END
> <ID>
CPD_1545

$$$$
CPD_1550
  Mrv1822 09091914012D          

 23 25  0  0  1  0            999 V2000
   -2.6439   -1.3374    0.0000 O   0  0  0  0  0  0  0  0  0  0  0  0
   -1.8471   -1.1239    0.0000 C   0  0  0  0  0  0  0  0  0  0  0  0
   -1.2637   -1.7072    0.0000 O   0  0  0  0  0  0  0  0  0  0  0  0
   -1.6335   -0.3270    0.0000 C   0  0  2  0  0  0  0  0  0  0  0  0
   -2.2169    0.2564    0.0000 C   0  0  0  0  0  0  0  0  0  0  0  0
   -2.0034    1.0533    0.0000 C   0  0  0  0  0  0  0  0  0  0  0  0
   -1.2065    1.2668    0.0000 C   0  0  0  0  0  0  0  0  0  0  0  0
   -0.6231    0.6835    0.0000 C   0  0  0  0  0  0  0  0  0  0  0  0
   -0.8366   -0.1134    0.0000 C   0  0  2  0  0  0  0  0  0  0  0  0
   -0.2533   -0.6968    0.0000 N   0  0  0  0  0  0  0  0  0  0  0  0
    0.5436   -0.4833    0.0000 C   0  0  0  0  0  0  0  0  0  0  0  0
    0.7571    0.3136    0.0000 O   0  0  0  0  0  0  0  0  0  0  0  0
    1.1270   -1.0666    0.0000 C   0  0  0  0  0  0  0  0  0  0  0  0
    1.7103   -1.6500    0.0000 C   0  0  0  0  0  0  0  0  0  0  0  0
    1.1270   -2.2334    0.0000 C   0  0  0  0  0  0  0  0  0  0  0  0
    0.5436   -1.6500    0.0000 C   0  0  0  0  0  0  0  0  0  0  0  0
    1.7103   -0.4833    0.0000 C   0  0  0  0  0  0  0  0  0  0  0  0
    1.4968    0.3136    0.0000 C   0  0  0  0  0  0  0  0  0  0  0  0
    2.0802    0.8970    0.0000 C   0  0  0  0  0  0  0  0  0  0  0  0
    2.8771    0.6835    0.0000 C   0  0  0  0  0  0  0  0  0  0  0  0
    3.4604    1.2668    0.0000 Cl  0  0  0  0  0  0  0  0  0  0  0  0
    3.0906   -0.1134    0.0000 C   0  0  0  0  0  0  0  0  0  0  0  0
    2.5072   -0.6968    0.0000 C   0  0  0  0  0  0  0  0  0  0  0  0
  1  2  1  0  0  0  0
  2  3  2  0  0  0  0
  4  2  1  6  0  0  0
  4  5  1  0  0  0  0
  5  6  1  0  0  0  0
  6  7  1  0  0  0  0
  7  8  1  0  0  0  0
  9  8  1  0  0  0  0
  4  9  1  0  0  0  0
  9 10  1  6  0  0  0
 10 11  1  0  0  0  0
 11 12  2  0  0  0  0
 11 13  1  0  0  0  0
 13 14  1  0  0  0  0
 14 15  1  0  0  0  0
 15 16  1  0  0  0  0
 13 16  1  0  0  0  0
 13 17  1  0  0  0  0
 17 18  2  0  0  0  0
 18 19  1  0  0  0  0
 19 20  2  0  0  0  0
 20 21  1  0  0  0  0
 20 22  1  0  0  0  0
 22 23  2  0  0  0  0
 17 23  1  0  0  0  0
M  END
> <ID>
CPD_1550

$$$$
CPD_1555
  Mrv1822 09091914012D          

 22 23  0  0  1  0            999 V2000
    0.0000   -2.4750    0.0000 O   0  0  0  0  0  0  0  0  0  0  0  0
    0.7145   -2.8875    0.0000 C   0  0  0  0  0  0  0  0  0  0  0  0
    1.4289   -2.4750    0.0000 O   0  0  0  0  0  0  0  0  0  0  0  0
    0.7145   -3.7125    0.0000 C   0  0  2  0  0  0  0  0  0  0  0  0
    0.0000   -4.1250    0.0000 C   0  0  0  0  0  0  0  0  0  0  0  0
    0.0000   -4.9500    0.0000 C   0  0  0  0  0  0  0  0  0  0  0  0
    0.7145   -5.3625    0.0000 C   0  0  0  0  0  0  0  0  0  0  0  0
    1.4289   -4.9500    0.0000 C   0  0  0  0  0  0  0  0  0  0  0  0
    1.4289   -4.1250    0.0000 C   0  0  2  0  0  0  0  0  0  0  0  0
    2.1434   -3.7125    0.0000 N   0  0  0  0  0  0  0  0  0  0  0  0
    2.8579   -4.1250    0.0000 C   0  0  0  0  0  0  0  0  0  0  0  0
    2.8579   -4.9500    0.0000 O   0  0  0  0  0  0  0  0  0  0  0  0
    3.5724   -3.7125    0.0000 C   0  0  0  0  0  0  0  0  0  0  0  0
    4.2868   -4.1250    0.0000 C   0  0  0  0  0  0  0  0  0  0  0  0
    5.0013   -3.7125    0.0000 C   0  0  0  0  0  0  0  0  0  0  0  0
    5.0013   -2.8875    0.0000 O   0  0  0  0  0  0  0  0  0  0  0  0
    5.7158   -4.1250    0.0000 C   0  0  0  0  0  0  0  0  0  0  0  0
    6.4302   -3.7125    0.0000 C   0  0  0  0  0  0  0  0  0  0  0  0
    7.1447   -4.1250    0.0000 C   0  0  0  0  0  0  0  0  0  0  0  0
    7.1447   -4.9500    0.0000 C   0  0  0  0  0  0  0  0  0  0  0  0
    6.4302   -5.3625    0.0000 C   0  0  0  0  0  0  0  0  0  0  0  0
    5.7158   -4.9500    0.0000 C   0  0  0  0  0  0  0  0  0  0  0  0
  1  2  1  0  0  0  0
  2  3  2  0  0  0  0
  4  2  1  1  0  0  0
  4  5  1  0  0  0  0
  5  6  1  0  0  0  0
  6  7  1  0  0  0  0
  7  8  1  0  0  0  0
  9  8  1  0  0  0  0
  4  9  1  0  0  0  0
  9 10  1  1  0  0  0
 10 11  1  0  0  0  0
 11 12  2  0  0  0  0
 11 13  1  0  0  0  0
 13 14  1  0  0  0  0
 14 15  1  0  0  0  0
 15 16  2  0  0  0  0
 15 17  1  0  0  0  0
 17 18  2  0  0  0  0
 18 19  1  0  0  0  0
 19 20  2  0  0  0  0
 20 21  1  0  0  0  0
 21 22  2  0  0  0  0
 17 22  1  0  0  0  0
M  END
> <ID>
CPD_1555

$$$$
CPD_1560
  Mrv1822 09091914012D          

 35 39  0  0  0  0            999 V2000
    9.7222   -1.4476    0.0000 O   0  0  0  0  0  0  0  0  0  0  0  0
    9.0915   -0.9157    0.0000 C   0  0  0  0  0  0  0  0  0  0  0  0
    8.3156   -1.1960    0.0000 C   0  0  0  0  0  0  0  0  0  0  0  0
    7.6849   -0.6642    0.0000 N   0  0  0  0  0  0  0  0  0  0  0  0
    6.9089   -0.9445    0.0000 C   0  0  0  0  0  0  0  0  0  0  0  0
    6.7637   -1.7566    0.0000 N   0  0  0  0  0  0  0  0  0  0  0  0
    5.9878   -2.0369    0.0000 C   0  0  0  0  0  0  0  0  0  0  0  0
    5.3571   -1.5051    0.0000 C   0  0  0  0  0  0  0  0  0  0  0  0
    4.5812   -1.7854    0.0000 Br  0  0  0  0  0  0  0  0  0  0  0  0
    5.5023   -0.6930    0.0000 C   0  0  0  0  0  0  0  0  0  0  0  0
    6.2782   -0.4127    0.0000 C   0  0  0  0  0  0  0  0  0  0  0  0
    6.4235    0.3994    0.0000 N   0  0  0  0  0  0  0  0  0  0  0  0
    5.7927    0.9312    0.0000 C   0  0  0  0  0  0  0  0  0  0  0  0
    5.9380    1.7434    0.0000 O   0  0  0  0  0  0  0  0  0  0  0  0
    5.0168    0.6509    0.0000 C   0  0  0  0  0  0  0  0  0  0  0  0
    4.7875   -0.1416    0.0000 N   0  0  0  0  0  0  0  0  0  0  0  0
    3.9629   -0.1684    0.0000 N   0  0  0  0  0  0  0  0  0  0  0  0
    3.6826    0.6076    0.0000 C   0  0  0  0  0  0  0  0  0  0  0  0
    4.3340    1.1139    0.0000 C   0  0  0  0  0  0  0  0  0  0  0  0
    2.8705    0.7528    0.0000 N   0  0  0  0  0  0  0  0  0  0  0  0
    2.3387    0.1221    0.0000 C   0  0  0  0  0  0  0  0  0  0  0  0
    2.6190   -0.6539    0.0000 C   0  0  0  0  0  0  0  0  0  0  0  0
    2.0872   -1.2846    0.0000 C   0  0  0  0  0  0  0  0  0  0  0  0
    1.2751   -1.1393    0.0000 C   0  0  0  0  0  0  0  0  0  0  0  0
    0.9948   -0.3634    0.0000 C   0  0  0  0  0  0  0  0  0  0  0  0
    0.1827   -0.2182    0.0000 C   0  0  0  0  0  0  0  0  0  0  0  0
   -0.0976    0.5577    0.0000 C   0  0  0  0  0  0  0  0  0  0  0  0
    0.4342    1.1884    0.0000 C   0  0  0  0  0  0  0  0  0  0  0  0
    1.2463    1.0432    0.0000 C   0  0  0  0  0  0  0  0  0  0  0  0
    1.5266    0.2673    0.0000 C   0  0  0  0  0  0  0  0  0  0  0  0
    3.4311   -0.7991    0.0000 C   0  0  0  0  0  0  0  0  0  0  0  0
    3.7114   -1.5750    0.0000 C   0  0  0  0  0  0  0  0  0  0  0  0
    3.9917   -2.3509    0.0000 F   0  0  0  0  0  0  0  0  0  0  0  0
    4.4874   -1.2947    0.0000 F   0  0  0  0  0  0  0  0  0  0  0  0
    2.9355   -1.8553    0.0000 F   0  0  0  0  0  0  0  0  0  0  0  0
  1  2  1  0  0  0  0
  2  3  1  0  0  0  0
  3  4  1  0  0  0  0
  4  5  1  0  0  0  0
  5  6  2  0  0  0  0
  6  7  1  0  0  0  0
  7  8  2  0  0  0  0
  8  9  1  0  0  0  0
  8 10  1  0  0  0  0
 10 11  2  0  0  0  0
  5 11  1  0  0  0  0
 11 12  1  0  0  0  0
 12 13  1  0  0  0  0
 13 14  2  0  0  0  0
 13 15  1  0  0  0  0
 15 16  2  0  0  0  0
 16 17  1  0  0  0  0
 17 18  1  0  0  0  0
 18 19  2  0  0  0  0
 15 19  1  0  0  0  0
 18 20  1  0  0  0  0
 20 21  2  0  0  0  0
 21 22  1  0  0  0  0
 22 23  1  0  0  0  0
 23 24  1  0  0  0  0
 24 25  1  0  0  0  0
 25 26  2  0  0  0  0
 26 27  1  0  0  0  0
 27 28  2  0  0  0  0
 28 29  1  0  0  0  0
 29 30  2  0  0  0  0
 21 30  1  0  0  0  0
 25 30  1  0  0  0  0
 22 31  2  0  0  0  0
 17 31  1  0  0  0  0
 31 32  1  0  0  0  0
 32 33  1  0  0  0  0
 32 34  1  0  0  0  0
 32 35  1  0  0  0  0
M  END
> <ID>
CPD_1560

$$$$
CPD_1565
  Mrv1822 09091914012D          

 17 17  0  0  0  0            999 V2000
    0.7145   -1.2375    0.0000 C   0  0  0  0  0  0  0  0  0  0  0  0
    0.7145   -2.0625    0.0000 C   0  0  0  0  0  0  0  0  0  0  0  0
    1.4289   -2.4750    0.0000 C   0  0  0  0  0  0  0  0  0  0  0  0
    1.4289   -3.3000    0.0000 C   0  0  0  0  0  0  0  0  0  0  0  0
    0.7145   -3.7125    0.0000 O   0  0  0  0  0  0  0  0  0  0  0  0
    2.1434   -3.7125    0.0000 N   0  0  0  0  0  0  0  0  0  0  0  0
    2.8579   -3.3000    0.0000 C   0  0  0  0  0  0  0  0  0  0  0  0
    2.8579   -2.4750    0.0000 C   0  0  0  0  0  0  0  0  0  0  0  0
    3.5724   -2.0625    0.0000 O   0  0  0  0  0  0  0  0  0  0  0  0
    2.1434   -4.5375    0.0000 C   0  0  0  0  0  0  0  0  0  0  0  0
    2.8579   -4.9500    0.0000 N   0  0  0  0  0  0  0  0  0  0  0  0
    2.8579   -5.7750    0.0000 C   0  0  0  0  0  0  0  0  0  0  0  0
    2.1434   -6.1875    0.0000 C   0  0  0  0  0  0  0  0  0  0  0  0
    2.1434   -7.0125    0.0000 Br  0  0  0  0  0  0  0  0  0  0  0  0
    1.4289   -5.7750    0.0000 C   0  0  0  0  0  0  0  0  0  0  0  0
    1.4289   -4.9500    0.0000 C   0  0  0  0  0  0  0  0  0  0  0  0
    0.7145   -4.5375    0.0000 N   0  0  0  0  0  0  0  0  0  0  0  0
  1  2  1  0  0  0  0
  2  3  1  0  0  0  0
  3  4  1  0  0  0  0
  4  5  2  0  0  0  0
  4  6  1  0  0  0  0
  6  7  1  0  0  0  0
  7  8  1  0  0  0  0
  8  9  1  0  0  0  0
  6 10  1  0  0  0  0
 10 11  2  0  0  0  0
 11 12  1  0  0  0  0
 12 13  2  0  0  0  0
 13 14  1  0  0  0  0
 13 15  1  0  0  0  0
 15 16  2  0  0  0  0
 10 16  1  0  0  0  0
 16 17  1  0  0  0  0
M  END
> <ID>
CPD_1565

$$$$
CPD_1570
  Mrv1822 09091914012D          

 34 34  0  0  1  0            999 V2000
   -2.8579   -6.6000    0.0000 C   0  0  0  0  0  0  0  0  0  0  0  0
   -2.8579   -5.7750    0.0000 C   0  0  0  0  0  0  0  0  0  0  0  0
   -2.0329   -5.7750    0.0000 C   0  0  0  0  0  0  0  0  0  0  0  0
   -3.6829   -5.7750    0.0000 C   0  0  0  0  0  0  0  0  0  0  0  0
   -2.8579   -4.9500    0.0000 O   0  0  0  0  0  0  0  0  0  0  0  0
   -2.1434   -4.5375    0.0000 C   0  0  0  0  0  0  0  0  0  0  0  0
   -2.1434   -3.7125    0.0000 O   0  0  0  0  0  0  0  0  0  0  0  0
   -1.4289   -4.9500    0.0000 N   0  0  0  0  0  0  0  0  0  0  0  0
   -0.7145   -4.5375    0.0000 C   0  0  0  0  0  0  0  0  0  0  0  0
    0.0000   -4.9500    0.0000 C   0  0  0  0  0  0  0  0  0  0  0  0
    0.7145   -4.5375    0.0000 C   0  0  0  0  0  0  0  0  0  0  0  0
    1.4289   -4.9500    0.0000 C   0  0  1  0  0  0  0  0  0  0  0  0
    1.4289   -5.7750    0.0000 N   0  0  0  0  0  0  0  0  0  0  0  0
    2.1434   -6.1875    0.0000 C   0  0  0  0  0  0  0  0  0  0  0  0
    2.8579   -5.7750    0.0000 O   0  0  0  0  0  0  0  0  0  0  0  0
    2.1434   -7.0125    0.0000 O   0  0  0  0  0  0  0  0  0  0  0  0
    2.8579   -7.4250    0.0000 C   0  0  0  0  0  0  0  0  0  0  0  0
    2.4454   -8.1395    0.0000 C   0  0  0  0  0  0  0  0  0  0  0  0
    3.2704   -6.7105    0.0000 C   0  0  0  0  0  0  0  0  0  0  0  0
    3.5724   -7.8375    0.0000 C   0  0  0  0  0  0  0  0  0  0  0  0
    2.1434   -4.5375    0.0000 C   0  0  0  0  0  0  0  0  0  0  0  0
    2.1434   -3.7125    0.0000 O   0  0  0  0  0  0  0  0  0  0  0  0
    2.8579   -4.9500    0.0000 N   0  0  0  0  0  0  0  0  0  0  0  0
    3.5724   -4.5375    0.0000 C   0  0  0  0  0  0  0  0  0  0  0  0
    3.5724   -3.7125    0.0000 C   0  0  0  0  0  0  0  0  0  0  0  0
    4.2868   -3.3000    0.0000 C   0  0  0  0  0  0  0  0  0  0  0  0
    4.2868   -2.4750    0.0000 Br  0  0  0  0  0  0  0  0  0  0  0  0
    5.0013   -3.7125    0.0000 C   0  0  0  0  0  0  0  0  0  0  0  0
    5.0013   -4.5375    0.0000 N   0  0  0  0  0  0  0  0  0  0  0  0
    4.2868   -4.9500    0.0000 C   0  0  0  0  0  0  0  0  0  0  0  0
    4.2868   -5.7750    0.0000 N   0  0  0  0  0  0  0  0  0  0  0  0
    5.0013   -6.1875    0.0000 C   0  0  0  0  0  0  0  0  0  0  0  0
    5.0013   -7.0125    0.0000 C   0  0  0  0  0  0  0  0  0  0  0  0
    5.7158   -7.4250    0.0000 O   0  0  0  0  0  0  0  0  0  0  0  0
  1  2  1  0  0  0  0
  2  3  1  0  0  0  0
  2  4  1  0  0  0  0
  2  5  1  0  0  0  0
  5  6  1  0  0  0  0
  6  7  2  0  0  0  0
  6  8  1  0  0  0  0
  8  9  1  0  0  0  0
  9 10  1  0  0  0  0
 10 11  1  0  0  0  0
 12 11  1  0  0  0  0
 12 13  1  6  0  0  0
 13 14  1  0  0  0  0
 14 15  2  0  0  0  0
 14 16  1  0  0  0  0
 16 17  1  0  0  0  0
 17 18  1  0  0  0  0
 17 19  1  0  0  0  0
 17 20  1  0  0  0  0
 12 21  1  0  0  0  0
 21 22  2  0  0  0  0
 21 23  1  0  0  0  0
 23 24  1  0  0  0  0
 24 25  2  0  0  0  0
 25 26  1  0  0  0  0
 26 27  1  0  0  0  0
 26 28  2  0  0  0  0
 28 29  1  0  0  0  0
 29 30  2  0  0  0  0
 24 30  1  0  0  0  0
 30 31  1  0  0  0  0
 31 32  1  0  0  0  0
 32 33  1  0  0  0  0
 33 34  1  0  0  0  0
M  END
> <ID>
CPD_1570

$$$$
CPD_1575
  Mrv1822 09091914012D          

 27 28  0  0  0  0            999 V2000
   -2.8579    0.8250    0.0000 C   0  0  0  0  0  0  0  0  0  0  0  0
   -2.1434    0.4125    0.0000 C   0  0  0  0  0  0  0  0  0  0  0  0
   -1.4289    0.8250    0.0000 C   0  0  0  0  0  0  0  0  0  0  0  0
   -0.7145    0.4125    0.0000 C   0  0  0  0  0  0  0  0  0  0  0  0
   -0.7145   -0.4125    0.0000 C   0  0  0  0  0  0  0  0  0  0  0  0
   -1.4289   -0.8250    0.0000 C   0  0  0  0  0  0  0  0  0  0  0  0
   -2.1434   -0.4125    0.0000 C   0  0  0  0  0  0  0  0  0  0  0  0
    0.0000   -0.8250    0.0000 S   0  0  0  0  0  0  0  0  0  0  0  0
   -0.4125   -1.5395    0.0000 O   0  0  0  0  0  0  0  0  0  0  0  0
    0.4125   -0.1105    0.0000 O   0  0  0  0  0  0  0  0  0  0  0  0
    0.7145   -1.2375    0.0000 N   0  0  0  0  0  0  0  0  0  0  0  0
    1.4289   -0.8250    0.0000 C   0  0  0  0  0  0  0  0  0  0  0  0
    1.4289   -0.0000    0.0000 O   0  0  0  0  0  0  0  0  0  0  0  0
    2.1434   -1.2375    0.0000 C   0  0  0  0  0  0  0  0  0  0  0  0
    2.8579   -0.8250    0.0000 C   0  0  0  0  0  0  0  0  0  0  0  0
    3.5724   -1.2375    0.0000 C   0  0  0  0  0  0  0  0  0  0  0  0
    4.2868   -1.6500    0.0000 C   0  0  0  0  0  0  0  0  0  0  0  0
    0.7145   -2.0625    0.0000 C   0  0  0  0  0  0  0  0  0  0  0  0
    1.4289   -2.4750    0.0000 C   0  0  0  0  0  0  0  0  0  0  0  0
    2.1434   -2.0625    0.0000 C   0  0  0  0  0  0  0  0  0  0  0  0
    1.4289   -3.3000    0.0000 C   0  0  0  0  0  0  0  0  0  0  0  0
    0.7145   -3.7125    0.0000 C   0  0  0  0  0  0  0  0  0  0  0  0
    0.0000   -3.3000    0.0000 C   0  0  0  0  0  0  0  0  0  0  0  0
    0.0000   -2.4750    0.0000 C   0  0  0  0  0  0  0  0  0  0  0  0
    0.7145   -4.5375    0.0000 C   0  0  0  0  0  0  0  0  0  0  0  0
    1.4289   -4.9500    0.0000 O   0  0  0  0  0  0  0  0  0  0  0  0
    0.0000   -4.9500    0.0000 O   0  0  0  0  0  0  0  0  0  0  0  0
  1  2  1  0  0  0  0
  2  3  2  0  0  0  0
  3  4  1  0  0  0  0
  4  5  2  0  0  0  0
  5  6  1  0  0  0  0
  6  7  2  0  0  0  0
  2  7  1  0  0  0  0
  5  8  1  0  0  0  0
  8  9  2  0  0  0  0
  8 10  2  0  0  0  0
  8 11  1  0  0  0  0
 11 12  1  0  0  0  0
 12 13  2  0  0  0  0
 12 14  1  0  0  0  0
 14 15  1  0  0  0  0
 15 16  1  0  0  0  0
 16 17  3  0  0  0  0
 11 18  1  0  0  0  0
 18 19  2  0  0  0  0
 19 20  1  0  0  0  0
 19 21  1  0  0  0  0
 21 22  2  0  0  0  0
 22 23  1  0  0  0  0
 23 24  2  0  0  0  0
 18 24  1  0  0  0  0
 22 25  1  0  0  0  0
 25 26  1  0  0  0  0
 25 27  2  0  0  0  0
M  END
> <ID>
CPD_1575

$$$$
CPD_1580
  Mrv1822 09091914012D          

 32 35  0  0  0  0            999 V2000
   -3.6340    1.0461    0.0000 C   0  0  0  0  0  0  0  0  0  0  0  0
   -2.9195    0.6336    0.0000 O   0  0  0  0  0  0  0  0  0  0  0  0
   -2.9195   -0.1914    0.0000 C   0  0  0  0  0  0  0  0  0  0  0  0
   -2.2051   -0.6039    0.0000 C   0  0  0  0  0  0  0  0  0  0  0  0
   -1.4205   -0.3490    0.0000 N   0  0  0  0  0  0  0  0  0  0  0  0
   -0.9355   -1.0164    0.0000 C   0  0  0  0  0  0  0  0  0  0  0  0
   -1.4205   -1.6839    0.0000 C   0  0  0  0  0  0  0  0  0  0  0  0
   -2.2051   -1.4289    0.0000 C   0  0  0  0  0  0  0  0  0  0  0  0
   -2.9195   -1.8414    0.0000 C   0  0  0  0  0  0  0  0  0  0  0  0
   -2.9195   -2.6664    0.0000 Br  0  0  0  0  0  0  0  0  0  0  0  0
   -3.6340   -1.4289    0.0000 C   0  0  0  0  0  0  0  0  0  0  0  0
   -3.6340   -0.6039    0.0000 C   0  0  0  0  0  0  0  0  0  0  0  0
   -0.1105   -1.0164    0.0000 C   0  0  0  0  0  0  0  0  0  0  0  0
    0.3020   -1.7309    0.0000 O   0  0  0  0  0  0  0  0  0  0  0  0
    0.3020   -0.3020    0.0000 N   0  0  0  0  0  0  0  0  0  0  0  0
   -0.1105    0.4125    0.0000 C   0  0  0  0  0  0  0  0  0  0  0  0
    0.3020    1.1270    0.0000 C   0  0  0  0  0  0  0  0  0  0  0  0
    1.1270    1.1270    0.0000 C   0  0  0  0  0  0  0  0  0  0  0  0
    1.5395    0.4125    0.0000 C   0  0  0  0  0  0  0  0  0  0  0  0
    1.9520    1.1270    0.0000 C   0  0  0  0  0  0  0  0  0  0  0  0
    2.7770    1.1270    0.0000 O   0  0  0  0  0  0  0  0  0  0  0  0
    3.1895    0.4125    0.0000 C   0  0  0  0  0  0  0  0  0  0  0  0
    2.7770   -0.3020    0.0000 C   0  0  0  0  0  0  0  0  0  0  0  0
    1.9520   -0.3020    0.0000 N   0  0  0  0  0  0  0  0  0  0  0  0
    1.5395   -1.0164    0.0000 C   0  0  0  0  0  0  0  0  0  0  0  0
    0.7145   -1.0164    0.0000 O   0  0  0  0  0  0  0  0  0  0  0  0
    1.9520   -1.7309    0.0000 O   0  0  0  0  0  0  0  0  0  0  0  0
    1.5395   -2.4454    0.0000 C   0  0  0  0  0  0  0  0  0  0  0  0
    1.1270   -3.1599    0.0000 C   0  0  0  0  0  0  0  0  0  0  0  0
    0.8250   -2.0329    0.0000 C   0  0  0  0  0  0  0  0  0  0  0  0
    2.2539   -2.8579    0.0000 C   0  0  0  0  0  0  0  0  0  0  0  0
    1.1270   -0.3020    0.0000 C   0  0  0  0  0  0  0  0  0  0  0  0
  1  2  1  0  0  0  0
  2  3  1  0  0  0  0
  3  4  2  0  0  0  0
  4  5  1  0  0  0  0
  5  6  1  0  0  0  0
  6  7  2  0  0  0  0
  7  8  1  0  0  0  0
  4  8  1  0  0  0  0
  8  9  2  0  0  0  0
  9 10  1  0  0  0  0
  9 11  1  0  0  0  0
 11 12  2  0  0  0  0
  3 12  1  0  0  0  0
  6 13  1  0  0  0  0
 13 14  2  0  0  0  0
 13 15  1  0  0  0  0
 15 16  1  0  0  0  0
 16 17  1  0  0  0  0
 17 18  1  0  0  0  0
 18 19  1  0  0  0  0
 19 20  1  0  0  0  0
 20 21  1  0  0  0  0
 21 22  1  0  0  0  0
 22 23  1  0  0  0  0
 23 24  1  0  0  0  0
 19 24  1  0  0  0  0
 24 25  1  0  0  0  0
 25 26  2  0  0  0  0
 25 27  1  0  0  0  0
 27 28  1  0  0  0  0
 28 29  1  0  0  0  0
 28 30  1  0  0  0  0
 28 31  1  0  0  0  0
 19 32  1  0  0  0  0
 15 32  1  0  0  0  0
M  END
> <ID>
CPD_1580

$$$$
CPD_1585
  Mrv1822 09091914012D          

 29 31  0  0  0  0            999 V2000
   -3.4105   -1.0164    0.0000 C   0  0  0  0  0  0  0  0  0  0  0  0
   -2.5855   -1.0164    0.0000 C   0  0  0  0  0  0  0  0  0  0  0  0
   -2.1730   -0.3020    0.0000 C   0  0  0  0  0  0  0  0  0  0  0  0
   -1.3480   -0.3020    0.0000 C   0  0  0  0  0  0  0  0  0  0  0  0
   -0.9355    0.4125    0.0000 C   0  0  0  0  0  0  0  0  0  0  0  0
   -0.9355   -1.0164    0.0000 C   0  0  0  0  0  0  0  0  0  0  0  0
   -0.1105   -1.0164    0.0000 C   0  0  0  0  0  0  0  0  0  0  0  0
    0.3020   -1.7309    0.0000 O   0  0  0  0  0  0  0  0  0  0  0  0
    0.3020   -0.3020    0.0000 N   0  0  0  0  0  0  0  0  0  0  0  0
   -0.1105    0.4125    0.0000 C   0  0  0  0  0  0  0  0  0  0  0  0
    0.3020    1.1270    0.0000 C   0  0  0  0  0  0  0  0  0  0  0  0
    1.1270    1.1270    0.0000 C   0  0  0  0  0  0  0  0  0  0  0  0
    1.5395    0.4125    0.0000 C   0  0  0  0  0  0  0  0  0  0  0  0
    1.9520    1.1270    0.0000 C   0  0  0  0  0  0  0  0  0  0  0  0
    2.7770    1.1270    0.0000 O   0  0  0  0  0  0  0  0  0  0  0  0
    3.1895    0.4125    0.0000 C   0  0  0  0  0  0  0  0  0  0  0  0
    2.7770   -0.3020    0.0000 C   0  0  0  0  0  0  0  0  0  0  0  0
    1.9520   -0.3020    0.0000 N   0  0  0  0  0  0  0  0  0  0  0  0
    1.5395   -1.0164    0.0000 C   0  0  0  0  0  0  0  0  0  0  0  0
    0.7145   -1.0164    0.0000 O   0  0  0  0  0  0  0  0  0  0  0  0
    1.9520   -1.7309    0.0000 O   0  0  0  0  0  0  0  0  0  0  0  0
    1.5395   -2.4454    0.0000 C   0  0  0  0  0  0  0  0  0  0  0  0
    1.1270   -3.1599    0.0000 C   0  0  0  0  0  0  0  0  0  0  0  0
    0.8250   -2.0329    0.0000 C   0  0  0  0  0  0  0  0  0  0  0  0
    2.2539   -2.8579    0.0000 C   0  0  0  0  0  0  0  0  0  0  0  0
    1.1270   -0.3020    0.0000 C   0  0  0  0  0  0  0  0  0  0  0  0
   -1.3480   -1.7309    0.0000 C   0  0  0  0  0  0  0  0  0  0  0  0
   -0.9355   -2.4454    0.0000 O   0  0  0  0  0  0  0  0  0  0  0  0
   -2.1730   -1.7309    0.0000 N   0  0  0  0  0  0  0  0  0  0  0  0
  1  2  1  0  0  0  0
  2  3  2  0  0  0  0
  3  4  1  0  0  0  0
  4  5  1  0  0  0  0
  4  6  2  0  0  0  0
  6  7  1  0  0  0  0
  7  8  2  0  0  0  0
  7  9  1  0  0  0  0
  9 10  1  0  0  0  0
 10 11  1  0  0  0  0
 11 12  1  0  0  0  0
 12 13  1  0  0  0  0
 13 14  1  0  0  0  0
 14 15  1  0  0  0  0
 15 16  1  0  0  0  0
 16 17  1  0  0  0  0
 17 18  1  0  0  0  0
 13 18  1  0  0  0  0
 18 19  1  0  0  0  0
 19 20  2  0  0  0  0
 19 21  1  0  0  0  0
 21 22  1  0  0  0  0
 22 23  1  0  0  0  0
 22 24  1  0  0  0  0
 22 25  1  0  0  0  0
 13 26  1  0  0  0  0
  9 26  1  0  0  0  0
  6 27  1  0  0  0  0
 27 28  2  0  0  0  0
 27 29  1  0  0  0  0
  2 29  1  0  0  0  0
M  END
> <ID>
CPD_1585

$$$$
CPD_1590
  Mrv1822 09091914012D          

 35 38  0  0  1  0            999 V2000
    1.1607   -4.3420    0.0000 C   0  0  0  0  0  0  0  0  0  0  0  0
    0.4933   -3.8571    0.0000 C   0  0  0  0  0  0  0  0  0  0  0  0
    0.5795   -3.0366    0.0000 N   0  0  0  0  0  0  0  0  0  0  0  0
   -0.0336   -2.4846    0.0000 C   0  0  2  0  0  0  0  0  0  0  0  0
    0.3020   -1.7309    0.0000 C   0  0  1  0  0  0  0  0  0  0  0  0
    1.1225   -1.8171    0.0000 C   0  0  0  0  0  0  0  0  0  0  0  0
    1.2940   -2.6241    0.0000 C   0  0  0  0  0  0  0  0  0  0  0  0
    2.0477   -2.9597    0.0000 O   0  0  0  0  0  0  0  0  0  0  0  0
   -0.1105   -1.0164    0.0000 C   0  0  0  0  0  0  0  0  0  0  0  0
   -0.9355   -1.0164    0.0000 O   0  0  0  0  0  0  0  0  0  0  0  0
    0.3020   -0.3020    0.0000 N   0  0  0  0  0  0  0  0  0  0  0  0
   -0.1105    0.4125    0.0000 C   0  0  0  0  0  0  0  0  0  0  0  0
    0.3020    1.1270    0.0000 C   0  0  0  0  0  0  0  0  0  0  0  0
    1.1270    1.1270    0.0000 C   0  0  0  0  0  0  0  0  0  0  0  0
    1.5395    0.4125    0.0000 C   0  0  0  0  0  0  0  0  0  0  0  0
    1.9520    1.1270    0.0000 C   0  0  0  0  0  0  0  0  0  0  0  0
    2.7770    1.1270    0.0000 O   0  0  0  0  0  0  0  0  0  0  0  0
    3.1895    0.4125    0.0000 C   0  0  0  0  0  0  0  0  0  0  0  0
    2.7770   -0.3020    0.0000 C   0  0  0  0  0  0  0  0  0  0  0  0
    1.9520   -0.3020    0.0000 N   0  0  0  0  0  0  0  0  0  0  0  0
    1.5395   -1.0164    0.0000 C   0  0  0  0  0  0  0  0  0  0  0  0
    0.7145   -1.0164    0.0000 O   0  0  0  0  0  0  0  0  0  0  0  0
    1.9520   -1.7309    0.0000 O   0  0  0  0  0  0  0  0  0  0  0  0
    2.7770   -1.7309    0.0000 C   0  0  0  0  0  0  0  0  0  0  0  0
    3.6020   -1.7309    0.0000 C   0  0  0  0  0  0  0  0  0  0  0  0
    2.7770   -0.9059    0.0000 C   0  0  0  0  0  0  0  0  0  0  0  0
    2.7770   -2.5559    0.0000 C   0  0  0  0  0  0  0  0  0  0  0  0
    1.1270   -0.3020    0.0000 C   0  0  0  0  0  0  0  0  0  0  0  0
   -0.8406   -2.6561    0.0000 C   0  0  0  0  0  0  0  0  0  0  0  0
   -1.0955   -3.4407    0.0000 C   0  0  0  0  0  0  0  0  0  0  0  0
   -1.9025   -3.6123    0.0000 C   0  0  0  0  0  0  0  0  0  0  0  0
   -2.4545   -2.9992    0.0000 C   0  0  0  0  0  0  0  0  0  0  0  0
   -3.2615   -3.1707    0.0000 C   0  0  0  0  0  0  0  0  0  0  0  0
   -2.1996   -2.2145    0.0000 C   0  0  0  0  0  0  0  0  0  0  0  0
   -1.3926   -2.0430    0.0000 C   0  0  0  0  0  0  0  0  0  0  0  0
  1  2  1  0  0  0  0
  2  3  1  0  0  0  0
  4  3  1  0  0  0  0
  4  5  1  0  0  0  0
  5  6  1  0  0  0  0
  6  7  1  0  0  0  0
  3  7  1  0  0  0  0
  7  8  2  0  0  0  0
  5  9  1  6  0  0  0
  9 10  2  0  0  0  0
  9 11  1  0  0  0  0
 11 12  1  0  0  0  0
 12 13  1  0  0  0  0
 13 14  1  0  0  0  0
 14 15  1  0  0  0  0
 15 16  1  0  0  0  0
 16 17  1  0  0  0  0
 17 18  1  0  0  0  0
 18 19  1  0  0  0  0
 19 20  1  0  0  0  0
 15 20  1  0  0  0  0
 20 21  1  0  0  0  0
 21 22  2  0  0  0  0
 21 23  1  0  0  0  0
 23 24  1  0  0  0  0
 24 25  1  0  0  0  0
 24 26  1  0  0  0  0
 24 27  1  0  0  0  0
 15 28  1  0  0  0  0
 11 28  1  0  0  0  0
  4 29  1  1  0  0  0
 29 30  2  0  0  0  0
 30 31  1  0  0  0  0
 31 32  2  0  0  0  0
 32 33  1  0  0  0  0
 32 34  1  0  0  0  0
 34 35  2  0  0  0  0
 29 35  1  0  0  0  0
M  END
> <ID>
CPD_1590

$$$$
CPD_1595
  Mrv1822 09091914012D          

 33 35  0  0  0  0            999 V2000
   -0.5230   -1.7309    0.0000 C   0  0  0  0  0  0  0  0  0  0  0  0
    0.3020   -1.7309    0.0000 C   0  0  0  0  0  0  0  0  0  0  0  0
    0.3020   -2.5559    0.0000 C   0  0  0  0  0  0  0  0  0  0  0  0
    0.3020   -0.9059    0.0000 C   0  0  0  0  0  0  0  0  0  0  0  0
    1.1270   -1.7309    0.0000 O   0  0  0  0  0  0  0  0  0  0  0  0
    1.5395   -1.0164    0.0000 C   0  0  0  0  0  0  0  0  0  0  0  0
    2.3645   -1.0164    0.0000 O   0  0  0  0  0  0  0  0  0  0  0  0
    1.1270   -0.3020    0.0000 N   0  0  0  0  0  0  0  0  0  0  0  0
    0.3020   -0.3020    0.0000 C   0  0  0  0  0  0  0  0  0  0  0  0
   -0.1105    0.4125    0.0000 C   0  0  0  0  0  0  0  0  0  0  0  0
    0.3020    1.1270    0.0000 O   0  0  0  0  0  0  0  0  0  0  0  0
    1.1270    1.1270    0.0000 C   0  0  0  0  0  0  0  0  0  0  0  0
    1.5395    0.4125    0.0000 C   0  0  0  0  0  0  0  0  0  0  0  0
    1.9520    1.1270    0.0000 C   0  0  0  0  0  0  0  0  0  0  0  0
    2.7770    1.1270    0.0000 C   0  0  0  0  0  0  0  0  0  0  0  0
    3.1895    0.4125    0.0000 C   0  0  0  0  0  0  0  0  0  0  0  0
    2.7770   -0.3020    0.0000 N   0  0  0  0  0  0  0  0  0  0  0  0
    1.9520   -0.3020    0.0000 C   0  0  0  0  0  0  0  0  0  0  0  0
    3.1895   -1.0164    0.0000 C   0  0  0  0  0  0  0  0  0  0  0  0
    2.7770   -1.7309    0.0000 O   0  0  0  0  0  0  0  0  0  0  0  0
    4.0145   -1.0164    0.0000 C   0  0  0  0  0  0  0  0  0  0  0  0
    4.4270   -0.3020    0.0000 C   0  0  0  0  0  0  0  0  0  0  0  0
    5.2520   -0.3020    0.0000 C   0  0  0  0  0  0  0  0  0  0  0  0
    5.6645   -1.0164    0.0000 F   0  0  0  0  0  0  0  0  0  0  0  0
    5.6645    0.4125    0.0000 C   0  0  0  0  0  0  0  0  0  0  0  0
    5.2520    1.1270    0.0000 C   0  0  0  0  0  0  0  0  0  0  0  0
    4.4270    1.1270    0.0000 C   0  0  0  0  0  0  0  0  0  0  0  0
    4.0145    1.8414    0.0000 O   0  0  0  0  0  0  0  0  0  0  0  0
    4.4270    2.5559    0.0000 C   0  0  0  0  0  0  0  0  0  0  0  0
    4.8395    3.2704    0.0000 F   0  0  0  0  0  0  0  0  0  0  0  0
    5.1414    2.1434    0.0000 F   0  0  0  0  0  0  0  0  0  0  0  0
    3.7125    2.9684    0.0000 F   0  0  0  0  0  0  0  0  0  0  0  0
    4.0145    0.4125    0.0000 C   0  0  0  0  0  0  0  0  0  0  0  0
  1  2  1  0  0  0  0
  2  3  1  0  0  0  0
  2  4  1  0  0  0  0
  2  5  1  0  0  0  0
  5  6  1  0  0  0  0
  6  7  2  0  0  0  0
  6  8  1  0  0  0  0
  8  9  1  0  0  0  0
  9 10  1  0  0  0  0
 10 11  1  0  0  0  0
 11 12  1  0  0  0  0
 12 13  1  0  0  0  0
  8 13  1  0  0  0  0
 13 14  1  0  0  0  0
 14 15  1  0  0  0  0
 15 16  1  0  0  0  0
 16 17  1  0  0  0  0
 17 18  1  0  0  0  0
 13 18  1  0  0  0  0
 17 19  1  0  0  0  0
 19 20  2  0  0  0  0
 19 21  1  0  0  0  0
 21 22  1  0  0  0  0
 22 23  2  0  0  0  0
 23 24  1  0  0  0  0
 23 25  1  0  0  0  0
 25 26  2  0  0  0  0
 26 27  1  0  0  0  0
 27 28  1  0  0  0  0
 28 29  1  0  0  0  0
 29 30  1  0  0  0  0
 29 31  1  0  0  0  0
 29 32  1  0  0  0  0
 27 33  2  0  0  0  0
 22 33  1  0  0  0  0
M  END
> <ID>
CPD_1595

$$$$
CPD_1600
  Mrv1822 09091914012D          

 32 34  0  0  1  0            999 V2000
   -2.5533   -2.2990    0.0000 C   0  0  0  0  0  0  0  0  0  0  0  0
   -2.0013   -1.6859    0.0000 C   0  0  0  0  0  0  0  0  0  0  0  0
   -2.2562   -0.9013    0.0000 C   0  0  0  0  0  0  0  0  0  0  0  0
   -1.1943   -1.8574    0.0000 N   0  0  0  0  0  0  0  0  0  0  0  0
   -0.8587   -2.6111    0.0000 C   0  0  0  0  0  0  0  0  0  0  0  0
   -0.0383   -2.5249    0.0000 C   0  0  1  0  0  0  0  0  0  0  0  0
    0.1333   -1.7179    0.0000 C   0  0  0  0  0  0  0  0  0  0  0  0
   -0.5812   -1.3054    0.0000 C   0  0  1  0  0  0  0  0  0  0  0  0
   -0.6674   -0.4849    0.0000 C   0  0  0  0  0  0  0  0  0  0  0  0
   -1.4211   -0.1494    0.0000 O   0  0  0  0  0  0  0  0  0  0  0  0
   -0.0000    0.0000    0.0000 N   0  0  0  0  0  0  0  0  0  0  0  0
   -0.0000    0.8250    0.0000 C   0  0  0  0  0  0  0  0  0  0  0  0
    0.7846    1.0799    0.0000 C   0  0  0  0  0  0  0  0  0  0  0  0
    1.2695    0.4125    0.0000 C   0  0  0  0  0  0  0  0  0  0  0  0
    0.7846   -0.2549    0.0000 C   0  0  0  0  0  0  0  0  0  0  0  0
    1.6820    1.1270    0.0000 C   0  0  0  0  0  0  0  0  0  0  0  0
    2.5070    1.1270    0.0000 O   0  0  0  0  0  0  0  0  0  0  0  0
    2.9195    0.4125    0.0000 C   0  0  0  0  0  0  0  0  0  0  0  0
    2.5070   -0.3020    0.0000 C   0  0  0  0  0  0  0  0  0  0  0  0
    1.6820   -0.3020    0.0000 N   0  0  0  0  0  0  0  0  0  0  0  0
    1.2695   -1.0164    0.0000 C   0  0  0  0  0  0  0  0  0  0  0  0
    0.4445   -1.0164    0.0000 O   0  0  0  0  0  0  0  0  0  0  0  0
    1.6820   -1.7309    0.0000 O   0  0  0  0  0  0  0  0  0  0  0  0
    2.5070   -1.7309    0.0000 C   0  0  0  0  0  0  0  0  0  0  0  0
    3.3320   -1.7309    0.0000 C   0  0  0  0  0  0  0  0  0  0  0  0
    2.5070   -0.9059    0.0000 C   0  0  0  0  0  0  0  0  0  0  0  0
    2.5070   -2.5559    0.0000 C   0  0  0  0  0  0  0  0  0  0  0  0
    0.5138   -3.1380    0.0000 O   0  0  0  0  0  0  0  0  0  0  0  0
    0.2588   -3.9226    0.0000 C   0  0  0  0  0  0  0  0  0  0  0  0
    0.0039   -4.7072    0.0000 C   0  0  0  0  0  0  0  0  0  0  0  0
   -0.5258   -3.6677    0.0000 C   0  0  0  0  0  0  0  0  0  0  0  0
    1.0435   -4.1775    0.0000 C   0  0  0  0  0  0  0  0  0  0  0  0
  1  2  1  0  0  0  0
  2  3  1  0  0  0  0
  2  4  1  0  0  0  0
  4  5  1  0  0  0  0
  6  5  1  0  0  0  0
  6  7  1  0  0  0  0
  8  7  1  0  0  0  0
  8  4  1  0  0  0  0
  8  9  1  6  0  0  0
  9 10  2  0  0  0  0
  9 11  1  0  0  0  0
 11 12  1  0  0  0  0
 12 13  1  0  0  0  0
 13 14  1  0  0  0  0
 14 15  1  0  0  0  0
 11 15  1  0  0  0  0
 14 16  1  0  0  0  0
 16 17  1  0  0  0  0
 17 18  1  0  0  0  0
 18 19  1  0  0  0  0
 19 20  1  0  0  0  0
 14 20  1  0  0  0  0
 20 21  1  0  0  0  0
 21 22  2  0  0  0  0
 21 23  1  0  0  0  0
 23 24  1  0  0  0  0
 24 25  1  0  0  0  0
 24 26  1  0  0  0  0
 24 27  1  0  0  0  0
  6 28  1  1  0  0  0
 28 29  1  0  0  0  0
 29 30  1  0  0  0  0
 29 31  1  0  0  0  0
 29 32  1  0  0  0  0
M  END
> <ID>
CPD_1600

$$$$
CPD_1605
  Mrv1822 09091914012D          

 26 28  0  0  0  0            999 V2000
    1.1962   -8.0792    0.0000 C   0  0  0  0  0  0  0  0  0  0  0  0
    1.9106   -8.4917    0.0000 N   0  0  0  0  0  0  0  0  0  0  0  0
    2.6251   -8.0792    0.0000 C   0  0  0  0  0  0  0  0  0  0  0  0
    2.6251   -7.2542    0.0000 O   0  0  0  0  0  0  0  0  0  0  0  0
    3.3396   -8.4917    0.0000 C   0  0  0  0  0  0  0  0  0  0  0  0
    4.0540   -8.0792    0.0000 N   0  0  0  0  0  0  0  0  0  0  0  0
    4.7685   -8.4917    0.0000 C   0  0  0  0  0  0  0  0  0  0  0  0
    4.7685   -9.3167    0.0000 O   0  0  0  0  0  0  0  0  0  0  0  0
    5.4830   -8.0792    0.0000 C   0  0  0  0  0  0  0  0  0  0  0  0
    5.5692   -7.2587    0.0000 C   0  0  0  0  0  0  0  0  0  0  0  0
    4.9561   -6.7067    0.0000 C   0  0  0  0  0  0  0  0  0  0  0  0
    6.3762   -7.0872    0.0000 N   0  0  0  0  0  0  0  0  0  0  0  0
    6.7887   -7.8017    0.0000 C   0  0  0  0  0  0  0  0  0  0  0  0
    6.2367   -8.4148    0.0000 S   0  0  0  0  0  0  0  0  0  0  0  0
    7.6092   -7.8879    0.0000 C   0  0  0  0  0  0  0  0  0  0  0  0
    8.0941   -7.2205    0.0000 C   0  0  0  0  0  0  0  0  0  0  0  0
    8.9146   -7.3067    0.0000 C   0  0  0  0  0  0  0  0  0  0  0  0
    9.2501   -8.0604    0.0000 C   0  0  0  0  0  0  0  0  0  0  0  0
    8.7652   -8.7278    0.0000 C   0  0  0  0  0  0  0  0  0  0  0  0
    7.9447   -8.6416    0.0000 C   0  0  0  0  0  0  0  0  0  0  0  0
   10.0706   -8.1466    0.0000 C   0  0  0  0  0  0  0  0  0  0  0  0
   10.5555   -7.4792    0.0000 C   0  0  0  0  0  0  0  0  0  0  0  0
   11.3760   -7.5654    0.0000 C   0  0  0  0  0  0  0  0  0  0  0  0
   11.7116   -8.3191    0.0000 C   0  0  0  0  0  0  0  0  0  0  0  0
   11.2266   -8.9865    0.0000 C   0  0  0  0  0  0  0  0  0  0  0  0
   10.4062   -8.9003    0.0000 C   0  0  0  0  0  0  0  0  0  0  0  0
  1  2  1  0  0  0  0
  2  3  1  0  0  0  0
  3  4  2  0  0  0  0
  3  5  1  0  0  0  0
  5  6  1  0  0  0  0
  6  7  1  0  0  0  0
  7  8  2  0  0  0  0
  7  9  1  0  0  0  0
  9 10  2  0  0  0  0
 10 11  1  0  0  0  0
 10 12  1  0  0  0  0
 12 13  2  0  0  0  0
 13 14  1  0  0  0  0
  9 14  1  0  0  0  0
 13 15  1  0  0  0  0
 15 16  2  0  0  0  0
 16 17  1  0  0  0  0
 17 18  2  0  0  0  0
 18 19  1  0  0  0  0
 19 20  2  0  0  0  0
 15 20  1  0  0  0  0
 18 21  1  0  0  0  0
 21 22  2  0  0  0  0
 22 23  1  0  0  0  0
 23 24  2  0  0  0  0
 24 25  1  0  0  0  0
 25 26  2  0  0  0  0
 21 26  1  0  0  0  0
M  END
> <ID>
CPD_1605

$$$$
CPD_1610
  Mrv1822 09091914012D          

 19 20  0  0  0  0            999 V2000
    4.6194   -0.0983    0.0000 C   0  0  0  0  0  0  0  0  0  0  0  0
    5.3338   -0.5108    0.0000 N   0  0  0  0  0  0  0  0  0  0  0  0
    6.0483   -0.0983    0.0000 C   0  0  0  0  0  0  0  0  0  0  0  0
    6.0483    0.7267    0.0000 O   0  0  0  0  0  0  0  0  0  0  0  0
    6.7628   -0.5108    0.0000 C   0  0  0  0  0  0  0  0  0  0  0  0
    7.4773   -0.0983    0.0000 N   0  0  0  0  0  0  0  0  0  0  0  0
    8.1917   -0.5108    0.0000 C   0  0  0  0  0  0  0  0  0  0  0  0
    8.1917   -1.3358    0.0000 O   0  0  0  0  0  0  0  0  0  0  0  0
    8.9062   -0.0983    0.0000 C   0  0  0  0  0  0  0  0  0  0  0  0
    8.9924    0.7221    0.0000 C   0  0  0  0  0  0  0  0  0  0  0  0
    8.3793    1.2742    0.0000 N   0  0  0  0  0  0  0  0  0  0  0  0
    9.7994    0.8937    0.0000 S   0  0  0  0  0  0  0  0  0  0  0  0
   10.2119    0.1792    0.0000 C   0  0  0  0  0  0  0  0  0  0  0  0
    9.6599   -0.4339    0.0000 C   0  0  0  0  0  0  0  0  0  0  0  0
    9.8314   -1.2409    0.0000 C   0  0  0  0  0  0  0  0  0  0  0  0
   10.5851   -1.5764    0.0000 C   0  0  0  0  0  0  0  0  0  0  0  0
   10.4988   -2.3969    0.0000 C   0  0  0  0  0  0  0  0  0  0  0  0
    9.6919   -2.5684    0.0000 C   0  0  0  0  0  0  0  0  0  0  0  0
    9.2794   -1.8540    0.0000 S   0  0  0  0  0  0  0  0  0  0  0  0
  1  2  1  0  0  0  0
  2  3  1  0  0  0  0
  3  4  2  0  0  0  0
  3  5  1  0  0  0  0
  5  6  1  0  0  0  0
  6  7  1  0  0  0  0
  7  8  2  0  0  0  0
  7  9  1  0  0  0  0
  9 10  2  0  0  0  0
 10 11  1  0  0  0  0
 10 12  1  0  0  0  0
 12 13  1  0  0  0  0
 13 14  2  0  0  0  0
  9 14  1  0  0  0  0
 14 15  1  0  0  0  0
 15 16  2  0  0  0  0
 16 17  1  0  0  0  0
 17 18  2  0  0  0  0
 18 19  1  0  0  0  0
 15 19  1  0  0  0  0
M  END
> <ID>
CPD_1610

$$$$
CPD_1615
  Mrv1822 09091914012D          

 31 33  0  0  0  0            999 V2000
   -5.8353    0.3225    0.0000 C   0  0  0  0  0  0  0  0  0  0  0  0
   -5.1209    0.7350    0.0000 N   0  0  0  0  0  0  0  0  0  0  0  0
   -4.4064    0.3225    0.0000 C   0  0  0  0  0  0  0  0  0  0  0  0
   -4.4064   -0.5025    0.0000 O   0  0  0  0  0  0  0  0  0  0  0  0
   -3.6919    0.7350    0.0000 C   0  0  0  0  0  0  0  0  0  0  0  0
   -2.9775    0.3225    0.0000 N   0  0  0  0  0  0  0  0  0  0  0  0
   -2.2630    0.7350    0.0000 C   0  0  0  0  0  0  0  0  0  0  0  0
   -2.2630    1.5600    0.0000 O   0  0  0  0  0  0  0  0  0  0  0  0
   -1.5485    0.3225    0.0000 C   0  0  0  0  0  0  0  0  0  0  0  0
   -0.8340    0.7350    0.0000 O   0  0  0  0  0  0  0  0  0  0  0  0
   -0.1196    0.3225    0.0000 C   0  0  0  0  0  0  0  0  0  0  0  0
   -0.1196   -0.5025    0.0000 O   0  0  0  0  0  0  0  0  0  0  0  0
    0.5949    0.7350    0.0000 C   0  0  0  0  0  0  0  0  0  0  0  0
    0.8084    1.5319    0.0000 C   0  0  0  0  0  0  0  0  0  0  0  0
    1.6053    1.3184    0.0000 C   0  0  0  0  0  0  0  0  0  0  0  0
    1.3918    0.5215    0.0000 C   0  0  0  0  0  0  0  0  0  0  0  0
    1.8043   -0.1929    0.0000 C   0  0  0  0  0  0  0  0  0  0  0  0
    2.6293   -0.1929    0.0000 C   0  0  0  0  0  0  0  0  0  0  0  0
    3.0418   -0.9074    0.0000 C   0  0  0  0  0  0  0  0  0  0  0  0
    2.6293   -1.6219    0.0000 C   0  0  0  0  0  0  0  0  0  0  0  0
    1.8043   -1.6219    0.0000 C   0  0  0  0  0  0  0  0  0  0  0  0
    1.3918   -0.9074    0.0000 C   0  0  0  0  0  0  0  0  0  0  0  0
    2.3198    1.7309    0.0000 C   0  0  0  0  0  0  0  0  0  0  0  0
    3.0343    1.3184    0.0000 O   0  0  0  0  0  0  0  0  0  0  0  0
    2.3198    2.5559    0.0000 O   0  0  0  0  0  0  0  0  0  0  0  0
    0.3959    2.2464    0.0000 C   0  0  0  0  0  0  0  0  0  0  0  0
   -0.4291    2.2464    0.0000 C   0  0  0  0  0  0  0  0  0  0  0  0
   -0.8416    2.9609    0.0000 C   0  0  0  0  0  0  0  0  0  0  0  0
   -0.4291    3.6754    0.0000 C   0  0  0  0  0  0  0  0  0  0  0  0
    0.3959    3.6754    0.0000 C   0  0  0  0  0  0  0  0  0  0  0  0
    0.8084    2.9609    0.0000 C   0  0  0  0  0  0  0  0  0  0  0  0
  1  2  1  0  0  0  0
  2  3  1  0  0  0  0
  3  4  2  0  0  0  0
  3  5  1  0  0  0  0
  5  6  1  0  0  0  0
  6  7  1  0  0  0  0
  7  8  2  0  0  0  0
  7  9  1  0  0  0  0
  9 10  1  0  0  0  0
 10 11  1  0  0  0  0
 11 12  2  0  0  0  0
 11 13  1  0  0  0  0
 13 14  1  0  0  0  0
 14 15  1  0  0  0  0
 15 16  1  0  0  0  0
 13 16  1  0  0  0  0
 16 17  1  0  0  0  0
 17 18  2  0  0  0  0
 18 19  1  0  0  0  0
 19 20  2  0  0  0  0
 20 21  1  0  0  0  0
 21 22  2  0  0  0  0
 17 22  1  0  0  0  0
 15 23  1  0  0  0  0
 23 24  1  0  0  0  0
 23 25  2  0  0  0  0
 14 26  1  0  0  0  0
 26 27  2  0  0  0  0
 27 28  1  0  0  0  0
 28 29  2  0  0  0  0
 29 30  1  0  0  0  0
 30 31  2  0  0  0  0
 26 31  1  0  0  0  0
M  END
> <ID>
CPD_1615

$$$$
CPD_1620
  Mrv1822 09091914012D          

 27 29  0  0  0  0            999 V2000
   -4.2475   -2.4742    0.0000 C   0  0  0  0  0  0  0  0  0  0  0  0
   -3.5330   -2.0617    0.0000 N   0  0  0  0  0  0  0  0  0  0  0  0
   -2.8186   -2.4742    0.0000 C   0  0  0  0  0  0  0  0  0  0  0  0
   -2.8186   -3.2992    0.0000 O   0  0  0  0  0  0  0  0  0  0  0  0
   -2.1041   -2.0617    0.0000 C   0  0  0  0  0  0  0  0  0  0  0  0
   -1.3896   -2.4742    0.0000 N   0  0  0  0  0  0  0  0  0  0  0  0
   -0.6751   -2.0617    0.0000 C   0  0  0  0  0  0  0  0  0  0  0  0
   -0.6751   -1.2367    0.0000 O   0  0  0  0  0  0  0  0  0  0  0  0
    0.0393   -2.4742    0.0000 C   0  0  0  0  0  0  0  0  0  0  0  0
    0.7930   -2.1386    0.0000 C   0  0  0  0  0  0  0  0  0  0  0  0
    1.3450   -2.7517    0.0000 N   0  0  0  0  0  0  0  0  0  0  0  0
    0.9325   -3.4662    0.0000 N   0  0  0  0  0  0  0  0  0  0  0  0
    0.1256   -3.2947    0.0000 N   0  0  0  0  0  0  0  0  0  0  0  0
    2.1655   -2.6655    0.0000 C   0  0  0  0  0  0  0  0  0  0  0  0
    2.5011   -1.9118    0.0000 C   0  0  0  0  0  0  0  0  0  0  0  0
    3.3216   -1.8256    0.0000 C   0  0  0  0  0  0  0  0  0  0  0  0
    3.8065   -2.4930    0.0000 C   0  0  0  0  0  0  0  0  0  0  0  0
    4.6270   -2.4068    0.0000 C   0  0  0  0  0  0  0  0  0  0  0  0
    3.4709   -3.2467    0.0000 C   0  0  0  0  0  0  0  0  0  0  0  0
    3.9558   -3.9141    0.0000 C   0  0  0  0  0  0  0  0  0  0  0  0
    2.6504   -3.3329    0.0000 C   0  0  0  0  0  0  0  0  0  0  0  0
    0.9645   -1.3316    0.0000 C   0  0  0  0  0  0  0  0  0  0  0  0
    0.3514   -0.7796    0.0000 C   0  0  0  0  0  0  0  0  0  0  0  0
    0.5230    0.0274    0.0000 C   0  0  0  0  0  0  0  0  0  0  0  0
    1.3076    0.2823    0.0000 C   0  0  0  0  0  0  0  0  0  0  0  0
    1.9207   -0.2697    0.0000 C   0  0  0  0  0  0  0  0  0  0  0  0
    1.7492   -1.0767    0.0000 N   0  0  0  0  0  0  0  0  0  0  0  0
  1  2  1  0  0  0  0
  2  3  1  0  0  0  0
  3  4  2  0  0  0  0
  3  5  1  0  0  0  0
  5  6  1  0  0  0  0
  6  7  1  0  0  0  0
  7  8  2  0  0  0  0
  7  9  1  0  0  0  0
  9 10  2  0  0  0  0
 10 11  1  0  0  0  0
 11 12  1  0  0  0  0
 12 13  2  0  0  0  0
  9 13  1  0  0  0  0
 11 14  1  0  0  0  0
 14 15  2  0  0  0  0
 15 16  1  0  0  0  0
 16 17  2  0  0  0  0
 17 18  1  0  0  0  0
 17 19  1  0  0  0  0
 19 20  1  0  0  0  0
 19 21  2  0  0  0  0
 14 21  1  0  0  0  0
 10 22  1  0  0  0  0
 22 23  2  0  0  0  0
 23 24  1  0  0  0  0
 24 25  2  0  0  0  0
 25 26  1  0  0  0  0
 26 27  2  0  0  0  0
 22 27  1  0  0  0  0
M  END
> <ID>
CPD_1620

$$$$
CPD_1625
  Mrv1822 09091914012D          

 38 41  0  0  0  0            999 V2000
   -8.5737   -4.1250    0.0000 C   0  0  0  0  0  0  0  0  0  0  0  0
   -7.8592   -4.5375    0.0000 O   0  0  0  0  0  0  0  0  0  0  0  0
   -7.8592   -5.3625    0.0000 C   0  0  0  0  0  0  0  0  0  0  0  0
   -7.1447   -5.7750    0.0000 C   0  0  0  0  0  0  0  0  0  0  0  0
   -7.1447   -6.6000    0.0000 C   0  0  0  0  0  0  0  0  0  0  0  0
   -6.4302   -7.0125    0.0000 N   0  0  0  0  0  0  0  0  0  0  0  0
   -5.7158   -6.6000    0.0000 C   0  0  0  0  0  0  0  0  0  0  0  0
   -5.7158   -5.7750    0.0000 O   0  0  0  0  0  0  0  0  0  0  0  0
   -5.0013   -7.0125    0.0000 C   0  0  0  0  0  0  0  0  0  0  0  0
   -4.2868   -6.6000    0.0000 N   0  0  0  0  0  0  0  0  0  0  0  0
   -3.5724   -7.0125    0.0000 C   0  0  0  0  0  0  0  0  0  0  0  0
   -3.5724   -7.8375    0.0000 O   0  0  0  0  0  0  0  0  0  0  0  0
   -2.8579   -6.6000    0.0000 C   0  0  0  0  0  0  0  0  0  0  0  0
   -2.1434   -7.0125    0.0000 C   0  0  0  0  0  0  0  0  0  0  0  0
   -1.4289   -6.6000    0.0000 C   0  0  0  0  0  0  0  0  0  0  0  0
   -0.7145   -7.0125    0.0000 C   0  0  0  0  0  0  0  0  0  0  0  0
   -0.7145   -7.8375    0.0000 C   0  0  0  0  0  0  0  0  0  0  0  0
   -1.4289   -8.2500    0.0000 C   0  0  0  0  0  0  0  0  0  0  0  0
   -2.1434   -7.8375    0.0000 C   0  0  0  0  0  0  0  0  0  0  0  0
    0.0000   -8.2500    0.0000 C   0  0  0  0  0  0  0  0  0  0  0  0
    0.7145   -7.8375    0.0000 C   0  0  0  0  0  0  0  0  0  0  0  0
    1.4289   -8.2500    0.0000 C   0  0  0  0  0  0  0  0  0  0  0  0
    1.4289   -9.0750    0.0000 C   0  0  0  0  0  0  0  0  0  0  0  0
    0.7145   -9.4875    0.0000 C   0  0  0  0  0  0  0  0  0  0  0  0
    0.0000   -9.0750    0.0000 C   0  0  0  0  0  0  0  0  0  0  0  0
    2.1434   -9.4875    0.0000 C   0  0  0  0  0  0  0  0  0  0  0  0
    2.1434  -10.3125    0.0000 O   0  0  0  0  0  0  0  0  0  0  0  0
    2.8579   -9.0750    0.0000 N   0  0  0  0  0  0  0  0  0  0  0  0
    2.8579   -8.2500    0.0000 C   0  0  0  0  0  0  0  0  0  0  0  0
    3.5724   -7.8375    0.0000 C   0  0  0  0  0  0  0  0  0  0  0  0
    4.2868   -8.2500    0.0000 C   0  0  0  0  0  0  0  0  0  0  0  0
    4.2868   -9.0750    0.0000 C   0  0  0  0  0  0  0  0  0  0  0  0
    3.5724   -9.4875    0.0000 C   0  0  0  0  0  0  0  0  0  0  0  0
   -7.8592   -7.0125    0.0000 C   0  0  0  0  0  0  0  0  0  0  0  0
   -7.8592   -7.8375    0.0000 O   0  0  0  0  0  0  0  0  0  0  0  0
   -8.5737   -8.2500    0.0000 C   0  0  0  0  0  0  0  0  0  0  0  0
   -8.5737   -6.6000    0.0000 C   0  0  0  0  0  0  0  0  0  0  0  0
   -8.5737   -5.7750    0.0000 C   0  0  0  0  0  0  0  0  0  0  0  0
  1  2  1  0  0  0  0
  2  3  1  0  0  0  0
  3  4  2  0  0  0  0
  4  5  1  0  0  0  0
  5  6  1  0  0  0  0
  6  7  1  0  0  0  0
  7  8  2  0  0  0  0
  7  9  1  0  0  0  0
  9 10  1  0  0  0  0
 10 11  1  0  0  0  0
 11 12  2  0  0  0  0
 11 13  1  0  0  0  0
 13 14  1  0  0  0  0
 14 15  2  0  0  0  0
 15 16  1  0  0  0  0
 16 17  2  0  0  0  0
 17 18  1  0  0  0  0
 18 19  2  0  0  0  0
 14 19  1  0  0  0  0
 17 20  1  0  0  0  0
 20 21  2  0  0  0  0
 21 22  1  0  0  0  0
 22 23  2  0  0  0  0
 23 24  1  0  0  0  0
 24 25  2  0  0  0  0
 20 25  1  0  0  0  0
 23 26  1  0  0  0  0
 26 27  2  0  0  0  0
 26 28  1  0  0  0  0
 28 29  1  0  0  0  0
 29 30  1  0  0  0  0
 30 31  1  0  0  0  0
 31 32  1  0  0  0  0
 32 33  1  0  0  0  0
 28 33  1  0  0  0  0
  5 34  2  0  0  0  0
 34 35  1  0  0  0  0
 35 36  1  0  0  0  0
 34 37  1  0  0  0  0
 37 38  2  0  0  0  0
  3 38  1  0  0  0  0
M  END
> <ID>
CPD_1625

$$$$
CPD_1630
  Mrv1822 09091914012D          

 31 34  0  0  0  0            999 V2000
   -1.4178   -5.9815    0.0000 C   0  0  0  0  0  0  0  0  0  0  0  0
   -0.7033   -5.5690    0.0000 O   0  0  0  0  0  0  0  0  0  0  0  0
    0.0112   -5.9815    0.0000 C   0  0  0  0  0  0  0  0  0  0  0  0
    0.7256   -5.5690    0.0000 C   0  0  0  0  0  0  0  0  0  0  0  0
    1.4401   -5.9815    0.0000 C   0  0  0  0  0  0  0  0  0  0  0  0
    2.1546   -5.5690    0.0000 N   0  0  0  0  0  0  0  0  0  0  0  0
    2.8690   -5.9815    0.0000 C   0  0  0  0  0  0  0  0  0  0  0  0
    2.8690   -6.8065    0.0000 O   0  0  0  0  0  0  0  0  0  0  0  0
    3.5835   -5.5690    0.0000 C   0  0  0  0  0  0  0  0  0  0  0  0
    4.2980   -5.9815    0.0000 N   0  0  0  0  0  0  0  0  0  0  0  0
    5.0125   -5.5690    0.0000 C   0  0  0  0  0  0  0  0  0  0  0  0
    5.0125   -4.7440    0.0000 O   0  0  0  0  0  0  0  0  0  0  0  0
    5.7269   -5.9815    0.0000 C   0  0  0  0  0  0  0  0  0  0  0  0
    5.7269   -6.8065    0.0000 N   0  0  0  0  0  0  0  0  0  0  0  0
    6.4414   -7.2190    0.0000 C   0  0  0  0  0  0  0  0  0  0  0  0
    7.1559   -6.8065    0.0000 C   0  0  0  0  0  0  0  0  0  0  0  0
    7.1559   -5.9815    0.0000 C   0  0  0  0  0  0  0  0  0  0  0  0
    6.4414   -5.5690    0.0000 C   0  0  0  0  0  0  0  0  0  0  0  0
    6.6129   -4.7621    0.0000 N   0  0  0  0  0  0  0  0  0  0  0  0
    7.4334   -4.6758    0.0000 C   0  0  0  0  0  0  0  0  0  0  0  0
    7.9183   -4.0084    0.0000 C   0  0  0  0  0  0  0  0  0  0  0  0
    8.7388   -4.0946    0.0000 C   0  0  0  0  0  0  0  0  0  0  0  0
    9.0744   -4.8483    0.0000 C   0  0  0  0  0  0  0  0  0  0  0  0
    9.8948   -4.9346    0.0000 C   0  0  0  0  0  0  0  0  0  0  0  0
    8.5894   -5.5158    0.0000 C   0  0  0  0  0  0  0  0  0  0  0  0
    7.7690   -5.4295    0.0000 C   0  0  0  0  0  0  0  0  0  0  0  0
    1.4401   -6.8065    0.0000 C   0  0  0  0  0  0  0  0  0  0  0  0
    2.1546   -7.2190    0.0000 O   0  0  0  0  0  0  0  0  0  0  0  0
    2.1546   -8.0440    0.0000 C   0  0  0  0  0  0  0  0  0  0  0  0
    0.7256   -7.2190    0.0000 C   0  0  0  0  0  0  0  0  0  0  0  0
    0.0112   -6.8065    0.0000 C   0  0  0  0  0  0  0  0  0  0  0  0
  1  2  1  0  0  0  0
  2  3  1  0  0  0  0
  3  4  2  0  0  0  0
  4  5  1  0  0  0  0
  5  6  1  0  0  0  0
  6  7  1  0  0  0  0
  7  8  2  0  0  0  0
  7  9  1  0  0  0  0
  9 10  1  0  0  0  0
 10 11  1  0  0  0  0
 11 12  2  0  0  0  0
 11 13  1  0  0  0  0
 13 14  1  0  0  0  0
 14 15  1  0  0  0  0
 15 16  1  0  0  0  0
 16 17  1  0  0  0  0
 17 18  2  0  0  0  0
 13 18  1  0  0  0  0
 18 19  1  0  0  0  0
 19 20  1  0  0  0  0
 20 21  2  0  0  0  0
 21 22  1  0  0  0  0
 22 23  2  0  0  0  0
 23 24  1  0  0  0  0
 23 25  1  0  0  0  0
 25 26  2  0  0  0  0
 17 26  1  0  0  0  0
 20 26  1  0  0  0  0
  5 27  2  0  0  0  0
 27 28  1  0  0  0  0
 28 29  1  0  0  0  0
 27 30  1  0  0  0  0
 30 31  2  0  0  0  0
  3 31  1  0  0  0  0
M  END
> <ID>
CPD_1630

$$$$
CPD_1635
  Mrv1822 09091914012D          

 31 32  0  0  0  0            999 V2000
   -0.8546   -1.9816    0.0000 C   0  0  0  0  0  0  0  0  0  0  0  0
   -0.0296   -1.9816    0.0000 O   0  0  0  0  0  0  0  0  0  0  0  0
    0.3829   -2.6961    0.0000 C   0  0  0  0  0  0  0  0  0  0  0  0
    1.2079   -2.6961    0.0000 C   0  0  0  0  0  0  0  0  0  0  0  0
    1.6204   -3.4105    0.0000 C   0  0  0  0  0  0  0  0  0  0  0  0
    2.4454   -3.4105    0.0000 N   0  0  0  0  0  0  0  0  0  0  0  0
    2.8579   -4.1250    0.0000 C   0  0  0  0  0  0  0  0  0  0  0  0
    2.4454   -4.8395    0.0000 O   0  0  0  0  0  0  0  0  0  0  0  0
    3.6829   -4.1250    0.0000 C   0  0  0  0  0  0  0  0  0  0  0  0
    4.0954   -4.8395    0.0000 N   0  0  0  0  0  0  0  0  0  0  0  0
    4.9204   -4.8395    0.0000 C   0  0  0  0  0  0  0  0  0  0  0  0
    5.3329   -4.1250    0.0000 O   0  0  0  0  0  0  0  0  0  0  0  0
    5.3329   -5.5539    0.0000 C   0  0  0  0  0  0  0  0  0  0  0  0
    6.1579   -5.5539    0.0000 C   0  0  0  0  0  0  0  0  0  0  0  0
    6.5704   -6.2684    0.0000 N   0  0  0  0  0  0  0  0  0  0  0  0
    7.3954   -6.2684    0.0000 C   0  0  0  0  0  0  0  0  0  0  0  0
    7.8079   -6.9829    0.0000 C   0  0  0  0  0  0  0  0  0  0  0  0
    7.3954   -7.6974    0.0000 C   0  0  0  0  0  0  0  0  0  0  0  0
    6.5704   -7.6974    0.0000 C   0  0  0  0  0  0  0  0  0  0  0  0
    6.1579   -6.9829    0.0000 C   0  0  0  0  0  0  0  0  0  0  0  0
    6.5704   -4.8395    0.0000 C   0  0  0  0  0  0  0  0  0  0  0  0
    6.1579   -4.1250    0.0000 O   0  0  0  0  0  0  0  0  0  0  0  0
    7.3954   -4.8395    0.0000 O   0  0  0  0  0  0  0  0  0  0  0  0
    7.8079   -4.1250    0.0000 C   0  0  0  0  0  0  0  0  0  0  0  0
    7.3954   -3.4105    0.0000 C   0  0  0  0  0  0  0  0  0  0  0  0
    8.6329   -4.1250    0.0000 C   0  0  0  0  0  0  0  0  0  0  0  0
    1.2079   -4.1250    0.0000 C   0  0  0  0  0  0  0  0  0  0  0  0
    1.6204   -4.8395    0.0000 O   0  0  0  0  0  0  0  0  0  0  0  0
    1.2079   -5.5539    0.0000 C   0  0  0  0  0  0  0  0  0  0  0  0
    0.3829   -4.1250    0.0000 C   0  0  0  0  0  0  0  0  0  0  0  0
   -0.0296   -3.4105    0.0000 C   0  0  0  0  0  0  0  0  0  0  0  0
  1  2  1  0  0  0  0
  2  3  1  0  0  0  0
  3  4  2  0  0  0  0
  4  5  1  0  0  0  0
  5  6  1  0  0  0  0
  6  7  1  0  0  0  0
  7  8  2  0  0  0  0
  7  9  1  0  0  0  0
  9 10  1  0  0  0  0
 10 11  1  0  0  0  0
 11 12  2  0  0  0  0
 11 13  1  0  0  0  0
 13 14  1  0  0  0  0
 14 15  1  0  0  0  0
 15 16  1  0  0  0  0
 16 17  1  0  0  0  0
 17 18  1  0  0  0  0
 18 19  1  0  0  0  0
 19 20  1  0  0  0  0
 15 20  1  0  0  0  0
 14 21  1  0  0  0  0
 21 22  2  0  0  0  0
 21 23  1  0  0  0  0
 23 24  1  0  0  0  0
 24 25  1  0  0  0  0
 24 26  1  0  0  0  0
  5 27  2  0  0  0  0
 27 28  1  0  0  0  0
 28 29  1  0  0  0  0
 27 30  1  0  0  0  0
 30 31  2  0  0  0  0
  3 31  1  0  0  0  0
M  END
> <ID>
CPD_1635

$$$$
CPD_1640
  Mrv1822 09091914012D          

 23 24  0  0  0  0            999 V2000
    2.1434   -0.4125    0.0000 C   0  0  0  0  0  0  0  0  0  0  0  0
    2.1434   -1.2375    0.0000 C   0  0  0  0  0  0  0  0  0  0  0  0
    1.4289   -1.6500    0.0000 N   0  0  0  0  0  0  0  0  0  0  0  0
    0.7145   -1.2375    0.0000 C   0  0  0  0  0  0  0  0  0  0  0  0
    0.0000   -1.6500    0.0000 C   0  0  0  0  0  0  0  0  0  0  0  0
    0.0000   -2.4750    0.0000 C   0  0  0  0  0  0  0  0  0  0  0  0
    0.7145   -2.8875    0.0000 Cl  0  0  0  0  0  0  0  0  0  0  0  0
   -0.7145   -2.8875    0.0000 C   0  0  0  0  0  0  0  0  0  0  0  0
   -1.4289   -2.4750    0.0000 C   0  0  0  0  0  0  0  0  0  0  0  0
   -1.4289   -1.6500    0.0000 C   0  0  0  0  0  0  0  0  0  0  0  0
   -0.7145   -1.2375    0.0000 C   0  0  0  0  0  0  0  0  0  0  0  0
   -2.1434   -1.2375    0.0000 S   0  0  0  0  0  0  0  0  0  0  0  0
   -2.8579   -0.8250    0.0000 F   0  0  0  0  0  0  0  0  0  0  0  0
   -2.1434   -2.0625    0.0000 F   0  0  0  0  0  0  0  0  0  0  0  0
   -2.8579   -1.6500    0.0000 F   0  0  0  0  0  0  0  0  0  0  0  0
   -2.1434   -0.4125    0.0000 F   0  0  0  0  0  0  0  0  0  0  0  0
   -1.4289   -0.8250    0.0000 F   0  0  0  0  0  0  0  0  0  0  0  0
    2.8579   -1.6500    0.0000 C   0  0  0  0  0  0  0  0  0  0  0  0
    2.8579   -2.4750    0.0000 O   0  0  0  0  0  0  0  0  0  0  0  0
    3.5724   -1.2375    0.0000 N   0  0  0  0  0  0  0  0  0  0  0  0
    4.2868   -1.6500    0.0000 C   0  0  0  0  0  0  0  0  0  0  0  0
    5.1118   -1.6500    0.0000 C   0  0  0  0  0  0  0  0  0  0  0  0
    4.6993   -2.3645    0.0000 C   0  0  0  0  0  0  0  0  0  0  0  0
  1  2  1  0  0  0  0
  2  3  1  0  0  0  0
  3  4  1  0  0  0  0
  4  5  1  0  0  0  0
  5  6  2  0  0  0  0
  6  7  1  0  0  0  0
  6  8  1  0  0  0  0
  8  9  2  0  0  0  0
  9 10  1  0  0  0  0
 10 11  2  0  0  0  0
  5 11  1  0  0  0  0
 10 12  1  0  0  0  0
 12 13  1  0  0  0  0
 12 14  1  0  0  0  0
 12 15  1  0  0  0  0
 12 16  1  0  0  0  0
 12 17  1  0  0  0  0
  2 18  1  0  0  0  0
 18 19  2  0  0  0  0
 18 20  1  0  0  0  0
 20 21  1  0  0  0  0
 21 22  1  0  0  0  0
 22 23  1  0  0  0  0
 21 23  1  0  0  0  0
M  END
> <ID>
CPD_1640

$$$$
CPD_1645
  Mrv1822 09091914012D          

 31 34  0  0  0  0            999 V2000
   -1.4604    1.7103    0.0000 C   0  0  0  0  0  0  0  0  0  0  0  0
   -1.2054    0.9256    0.0000 C   0  0  0  0  0  0  0  0  0  0  0  0
   -0.3984    0.7541    0.0000 C   0  0  0  0  0  0  0  0  0  0  0  0
   -0.1435   -0.0305    0.0000 N   0  0  0  0  0  0  0  0  0  0  0  0
   -0.6284   -0.6979    0.0000 C   0  0  0  0  0  0  0  0  0  0  0  0
   -1.4534   -0.6979    0.0000 O   0  0  0  0  0  0  0  0  0  0  0  0
   -0.1435   -1.3654    0.0000 C   0  0  0  0  0  0  0  0  0  0  0  0
    0.1921   -2.1191    0.0000 C   0  0  0  0  0  0  0  0  0  0  0  0
    1.0125   -2.2053    0.0000 C   0  0  0  0  0  0  0  0  0  0  0  0
    1.6800   -1.7204    0.0000 O   0  0  0  0  0  0  0  0  0  0  0  0
    1.3481   -2.9590    0.0000 C   0  0  0  0  0  0  0  0  0  0  0  0
    2.1551   -3.1305    0.0000 C   0  0  0  0  0  0  0  0  0  0  0  0
    2.2413   -3.9510    0.0000 C   0  0  0  0  0  0  0  0  0  0  0  0
    1.4876   -4.2865    0.0000 C   0  0  0  0  0  0  0  0  0  0  0  0
    0.9356   -3.6734    0.0000 S   0  0  0  0  0  0  0  0  0  0  0  0
   -0.8580   -1.7779    0.0000 N   0  0  0  0  0  0  0  0  0  0  0  0
   -0.8580   -2.6029    0.0000 C   0  0  0  0  0  0  0  0  0  0  0  0
   -0.1435   -3.0154    0.0000 C   0  0  0  0  0  0  0  0  0  0  0  0
   -1.5724   -3.0154    0.0000 C   0  0  0  0  0  0  0  0  0  0  0  0
   -2.2869   -2.6029    0.0000 O   0  0  0  0  0  0  0  0  0  0  0  0
   -1.5724   -3.8404    0.0000 N   0  0  0  0  0  0  0  0  0  0  0  0
   -2.2869   -4.2529    0.0000 C   0  0  0  0  0  0  0  0  0  0  0  0
   -2.6994   -4.9674    0.0000 C   0  0  0  0  0  0  0  0  0  0  0  0
   -3.1119   -4.2529    0.0000 C   0  0  0  0  0  0  0  0  0  0  0  0
    0.6411   -1.1104    0.0000 C   0  0  0  0  0  0  0  0  0  0  0  0
    0.6411   -0.2854    0.0000 C   0  0  0  0  0  0  0  0  0  0  0  0
    1.3556    0.1271    0.0000 C   0  0  0  0  0  0  0  0  0  0  0  0
    2.0701   -0.2854    0.0000 C   0  0  0  0  0  0  0  0  0  0  0  0
    2.0701   -1.1104    0.0000 C   0  0  0  0  0  0  0  0  0  0  0  0
    2.7845   -1.5229    0.0000 Br  0  0  0  0  0  0  0  0  0  0  0  0
    1.3556   -1.5229    0.0000 C   0  0  0  0  0  0  0  0  0  0  0  0
  1  2  1  0  0  0  0
  2  3  1  0  0  0  0
  3  4  1  0  0  0  0
  4  5  1  0  0  0  0
  5  6  2  0  0  0  0
  5  7  1  0  0  0  0
  7  8  1  0  0  0  0
  8  9  1  0  0  0  0
  9 10  2  0  0  0  0
  9 11  1  0  0  0  0
 11 12  2  0  0  0  0
 12 13  1  0  0  0  0
 13 14  2  0  0  0  0
 14 15  1  0  0  0  0
 11 15  1  0  0  0  0
  7 16  1  0  0  0  0
 16 17  1  0  0  0  0
 17 18  1  0  0  0  0
 17 19  1  0  0  0  0
 19 20  2  0  0  0  0
 19 21  1  0  0  0  0
 21 22  1  0  0  0  0
 22 23  1  0  0  0  0
 23 24  1  0  0  0  0
 22 24  1  0  0  0  0
  7 25  1  0  0  0  0
 25 26  2  0  0  0  0
  4 26  1  0  0  0  0
 26 27  1  0  0  0  0
 27 28  2  0  0  0  0
 28 29  1  0  0  0  0
 29 30  1  0  0  0  0
 29 31  2  0  0  0  0
 25 31  1  0  0  0  0
M  END
> <ID>
CPD_1645

$$$$
CPD_1650
  Mrv1822 09091914012D          

 17 19  0  0  1  0            999 V2000
   -2.9112   -3.2862    0.0000 C   0  0  0  0  0  0  0  0  0  0  0  0
   -2.0908   -3.2000    0.0000 C   0  0  0  0  0  0  0  0  0  0  0  0
   -1.7552   -2.4463    0.0000 C   0  0  0  0  0  0  0  0  0  0  0  0
   -2.2401   -1.7789    0.0000 Cl  0  0  0  0  0  0  0  0  0  0  0  0
   -0.9347   -2.3601    0.0000 C   0  0  0  0  0  0  0  0  0  0  0  0
   -0.5992   -1.6064    0.0000 N   0  0  0  0  0  0  0  0  0  0  0  0
    0.2213   -1.5201    0.0000 C   0  0  0  0  0  0  0  0  0  0  0  0
    0.5569   -0.7665    0.0000 C   0  0  1  0  0  0  0  0  0  0  0  0
   -0.1576   -0.3540    0.0000 C   0  0  0  0  0  0  0  0  0  0  0  0
    0.5569    0.0585    0.0000 C   0  0  2  0  0  0  0  0  0  0  0  0
    1.3415    0.3135    0.0000 C   0  0  0  0  0  0  0  0  0  0  0  0
    1.8264   -0.3540    0.0000 N   0  0  0  0  0  0  0  0  0  0  0  0
    1.3415   -1.0214    0.0000 C   0  0  0  0  0  0  0  0  0  0  0  0
   -0.4498   -3.0275    0.0000 C   0  0  0  0  0  0  0  0  0  0  0  0
    0.3707   -2.9413    0.0000 O   0  0  0  0  0  0  0  0  0  0  0  0
   -0.7854   -3.7812    0.0000 C   0  0  0  0  0  0  0  0  0  0  0  0
   -1.6058   -3.8674    0.0000 C   0  0  0  0  0  0  0  0  0  0  0  0
  1  2  1  0  0  0  0
  2  3  2  0  0  0  0
  3  4  1  0  0  0  0
  3  5  1  0  0  0  0
  5  6  1  0  0  0  0
  6  7  1  0  0  0  0
  8  7  1  1  0  0  0
  8  9  1  0  0  0  0
 10  9  1  6  0  0  0
  8 10  1  0  0  0  0
 10 11  1  0  0  0  0
 11 12  1  0  0  0  0
 12 13  1  0  0  0  0
  8 13  1  0  0  0  0
  5 14  2  0  0  0  0
 14 15  1  0  0  0  0
 14 16  1  0  0  0  0
 16 17  2  0  0  0  0
  2 17  1  0  0  0  0
M  END
> <ID>
CPD_1650

$$$$
CPD_1655
  Mrv1822 09091914012D          

 29 32  0  0  0  0            999 V2000
    9.2148    1.1104    0.0000 C   0  0  0  0  0  0  0  0  0  0  0  0
    8.5003    0.6979    0.0000 O   0  0  0  0  0  0  0  0  0  0  0  0
    7.7858    1.1104    0.0000 C   0  0  0  0  0  0  0  0  0  0  0  0
    7.0714    0.6979    0.0000 C   0  0  0  0  0  0  0  0  0  0  0  0
    6.3569    1.1104    0.0000 C   0  0  0  0  0  0  0  0  0  0  0  0
    6.3569    1.9354    0.0000 C   0  0  0  0  0  0  0  0  0  0  0  0
    5.6424    2.3479    0.0000 C   0  0  0  0  0  0  0  0  0  0  0  0
    4.9279    1.9354    0.0000 N   0  0  0  0  0  0  0  0  0  0  0  0
    4.2135    2.3479    0.0000 C   0  0  0  0  0  0  0  0  0  0  0  0
    3.4990    1.9354    0.0000 C   0  0  0  0  0  0  0  0  0  0  0  0
    3.4990    1.1104    0.0000 N   0  0  0  0  0  0  0  0  0  0  0  0
    2.7845    0.6979    0.0000 C   0  0  0  0  0  0  0  0  0  0  0  0
    2.0701    1.1104    0.0000 C   0  0  0  0  0  0  0  0  0  0  0  0
    1.3556    0.6979    0.0000 C   0  0  0  0  0  0  0  0  0  0  0  0
    0.6411    1.1104    0.0000 C   0  0  0  0  0  0  0  0  0  0  0  0
    0.6411    1.9354    0.0000 C   0  0  0  0  0  0  0  0  0  0  0  0
   -0.1435    2.1904    0.0000 C   0  0  0  0  0  0  0  0  0  0  0  0
   -0.6284    1.5229    0.0000 C   0  0  0  0  0  0  0  0  0  0  0  0
   -0.1435    0.8555    0.0000 N   0  0  0  0  0  0  0  0  0  0  0  0
   -0.3984    0.0709    0.0000 C   0  0  0  0  0  0  0  0  0  0  0  0
    1.3556    2.3479    0.0000 C   0  0  0  0  0  0  0  0  0  0  0  0
    2.0701    1.9354    0.0000 C   0  0  0  0  0  0  0  0  0  0  0  0
    2.7845    2.3479    0.0000 C   0  0  0  0  0  0  0  0  0  0  0  0
    2.7845    3.1729    0.0000 C   0  0  0  0  0  0  0  0  0  0  0  0
    2.0701    3.5854    0.0000 Br  0  0  0  0  0  0  0  0  0  0  0  0
    3.4990    3.5854    0.0000 C   0  0  0  0  0  0  0  0  0  0  0  0
    4.2135    3.1729    0.0000 N   0  0  0  0  0  0  0  0  0  0  0  0
    7.0714    2.3479    0.0000 C   0  0  0  0  0  0  0  0  0  0  0  0
    7.7858    1.9354    0.0000 C   0  0  0  0  0  0  0  0  0  0  0  0
  1  2  1  0  0  0  0
  2  3  1  0  0  0  0
  3  4  2  0  0  0  0
  4  5  1  0  0  0  0
  5  6  2  0  0  0  0
  6  7  1  0  0  0  0
  7  8  1  0  0  0  0
  8  9  1  0  0  0  0
  9 10  2  0  0  0  0
 10 11  1  0  0  0  0
 11 12  1  0  0  0  0
 12 13  1  0  0  0  0
 13 14  2  0  0  0  0
 14 15  1  0  0  0  0
 15 16  2  0  0  0  0
 16 17  1  0  0  0  0
 17 18  2  0  0  0  0
 18 19  1  0  0  0  0
 15 19  1  0  0  0  0
 19 20  1  0  0  0  0
 16 21  1  0  0  0  0
 21 22  2  0  0  0  0
 13 22  1  0  0  0  0
 10 23  1  0  0  0  0
 23 24  2  0  0  0  0
 24 25  1  0  0  0  0
 24 26  1  0  0  0  0
 26 27  2  0  0  0  0
  9 27  1  0  0  0  0
  6 28  1  0  0  0  0
 28 29  2  0  0  0  0
  3 29  1  0  0  0  0
M  END
> <ID>
CPD_1655

$$$$
CPD_1660
  Mrv1822 09091914012D          

 31 33  0  0  0  0            999 V2000
   -1.2671   -3.3000    0.0000 C   0  0  0  0  0  0  0  0  0  0  0  0
   -0.8546   -2.5855    0.0000 O   0  0  0  0  0  0  0  0  0  0  0  0
   -0.0296   -2.5855    0.0000 C   0  0  0  0  0  0  0  0  0  0  0  0
    0.3829   -1.8711    0.0000 C   0  0  0  0  0  0  0  0  0  0  0  0
    1.2079   -1.8711    0.0000 C   0  0  0  0  0  0  0  0  0  0  0  0
    1.6204   -2.5855    0.0000 C   0  0  0  0  0  0  0  0  0  0  0  0
    2.4454   -2.5855    0.0000 C   0  0  0  0  0  0  0  0  0  0  0  0
    2.8579   -3.3000    0.0000 N   0  0  0  0  0  0  0  0  0  0  0  0
    2.4454   -4.0145    0.0000 C   0  0  0  0  0  0  0  0  0  0  0  0
    2.8579   -4.7289    0.0000 C   0  0  0  0  0  0  0  0  0  0  0  0
    3.6829   -4.7289    0.0000 N   0  0  0  0  0  0  0  0  0  0  0  0
    2.4454   -5.4434    0.0000 C   0  0  0  0  0  0  0  0  0  0  0  0
    1.6204   -5.4434    0.0000 C   0  0  0  0  0  0  0  0  0  0  0  0
    1.2079   -6.1579    0.0000 Br  0  0  0  0  0  0  0  0  0  0  0  0
    1.2079   -4.7289    0.0000 C   0  0  0  0  0  0  0  0  0  0  0  0
    1.6204   -4.0145    0.0000 N   0  0  0  0  0  0  0  0  0  0  0  0
    3.6829   -3.3000    0.0000 C   0  0  0  0  0  0  0  0  0  0  0  0
    3.6829   -4.1250    0.0000 C   0  0  0  0  0  0  0  0  0  0  0  0
    3.6829   -2.4750    0.0000 C   0  0  0  0  0  0  0  0  0  0  0  0
    4.5079   -3.3000    0.0000 C   0  0  0  0  0  0  0  0  0  0  0  0
    4.9204   -2.5855    0.0000 O   0  0  0  0  0  0  0  0  0  0  0  0
    4.9204   -4.0145    0.0000 O   0  0  0  0  0  0  0  0  0  0  0  0
    5.7454   -4.0145    0.0000 C   0  0  0  0  0  0  0  0  0  0  0  0
    6.1579   -4.7289    0.0000 C   0  0  0  0  0  0  0  0  0  0  0  0
    6.9829   -4.7289    0.0000 C   0  0  0  0  0  0  0  0  0  0  0  0
    7.3954   -5.4434    0.0000 C   0  0  0  0  0  0  0  0  0  0  0  0
    6.9829   -6.1579    0.0000 C   0  0  0  0  0  0  0  0  0  0  0  0
    6.1579   -6.1579    0.0000 C   0  0  0  0  0  0  0  0  0  0  0  0
    5.7454   -5.4434    0.0000 C   0  0  0  0  0  0  0  0  0  0  0  0
    1.2079   -3.3000    0.0000 C   0  0  0  0  0  0  0  0  0  0  0  0
    0.3829   -3.3000    0.0000 C   0  0  0  0  0  0  0  0  0  0  0  0
  1  2  1  0  0  0  0
  2  3  1  0  0  0  0
  3  4  2  0  0  0  0
  4  5  1  0  0  0  0
  5  6  2  0  0  0  0
  6  7  1  0  0  0  0
  7  8  1  0  0  0  0
  8  9  1  0  0  0  0
  9 10  2  0  0  0  0
 10 11  1  0  0  0  0
 10 12  1  0  0  0  0
 12 13  2  0  0  0  0
 13 14  1  0  0  0  0
 13 15  1  0  0  0  0
 15 16  2  0  0  0  0
  9 16  1  0  0  0  0
  8 17  1  0  0  0  0
 17 18  1  0  0  0  0
 17 19  1  0  0  0  0
 17 20  1  0  0  0  0
 20 21  2  0  0  0  0
 20 22  1  0  0  0  0
 22 23  1  0  0  0  0
 23 24  1  0  0  0  0
 24 25  2  0  0  0  0
 25 26  1  0  0  0  0
 26 27  2  0  0  0  0
 27 28  1  0  0  0  0
 28 29  2  0  0  0  0
 24 29  1  0  0  0  0
  6 30  1  0  0  0  0
 30 31  2  0  0  0  0
  3 31  1  0  0  0  0
M  END
> <ID>
CPD_1660

$$$$
CPD_1665
  Mrv1822 09091914012D          

 32 36  0  0  0  0            999 V2000
    2.1794    1.1249    0.0000 N   0  0  0  0  0  0  0  0  0  0  0  0
    1.6910    1.8057    0.0000 C   0  0  0  0  0  0  0  0  0  0  0  0
    2.3187    2.3889    0.0000 C   0  0  0  0  0  0  0  0  0  0  0  0
    3.0987    2.0466    0.0000 N   0  0  0  0  0  0  0  0  0  0  0  0
    3.5626    2.7479    0.0000 C   0  0  0  0  0  0  0  0  0  0  0  0
    3.0779    3.4575    0.0000 C   0  0  0  0  0  0  0  0  0  0  0  0
    3.7092    3.9978    0.0000 N   0  0  0  0  0  0  0  0  0  0  0  0
    3.4409    4.7780    0.0000 C   0  0  0  0  0  0  0  0  0  0  0  0
    3.9824    5.4004    0.0000 C   0  0  0  0  0  0  0  0  0  0  0  0
    4.7922    5.2427    0.0000 O   0  0  0  0  0  0  0  0  0  0  0  0
    5.0604    4.4625    0.0000 C   0  0  0  0  0  0  0  0  0  0  0  0
    4.5189    3.8401    0.0000 C   0  0  0  0  0  0  0  0  0  0  0  0
    3.1627    1.1927    0.0000 C   0  0  0  0  0  0  0  0  0  0  0  0
    3.9725    1.0349    0.0000 N   0  0  0  0  0  0  0  0  0  0  0  0
    4.2408    0.2548    0.0000 C   0  0  0  0  0  0  0  0  0  0  0  0
    3.6993   -0.3677    0.0000 N   0  0  0  0  0  0  0  0  0  0  0  0
    2.8895   -0.2099    0.0000 C   0  0  0  0  0  0  0  0  0  0  0  0
    2.6212    0.5702    0.0000 C   0  0  0  0  0  0  0  0  0  0  0  0
    1.7964    0.5562    0.0000 C   0  0  0  0  0  0  0  0  0  0  0  0
    1.5548   -0.2327    0.0000 C   0  0  0  0  0  0  0  0  0  0  0  0
    0.7875   -0.5357    0.0000 C   0  0  0  0  0  0  0  0  0  0  0  0
    0.0722   -0.1247    0.0000 C   0  0  0  0  0  0  0  0  0  0  0  0
   -0.0525    0.6908    0.0000 C   0  0  0  0  0  0  0  0  0  0  0  0
    0.5074    1.2968    0.0000 C   0  0  0  0  0  0  0  0  0  0  0  0
    1.3302    1.2368    0.0000 C   0  0  0  0  0  0  0  0  0  0  0  0
    2.2305   -0.7062    0.0000 S   0  0  0  0  0  0  0  0  0  0  0  0
    0.7334    1.6659    0.0000 C   0  0  0  0  0  0  0  0  0  0  0  0
    0.1919    1.0435    0.0000 C   0  0  0  0  0  0  0  0  0  0  0  0
   -0.6179    1.2012    0.0000 C   0  0  0  0  0  0  0  0  0  0  0  0
   -0.8862    1.9814    0.0000 N   0  0  0  0  0  0  0  0  0  0  0  0
   -0.3447    2.6038    0.0000 C   0  0  0  0  0  0  0  0  0  0  0  0
    0.4651    2.4460    0.0000 C   0  0  0  0  0  0  0  0  0  0  0  0
  1  2  1  0  0  0  0
  2  3  1  0  0  0  0
  3  4  1  0  0  0  0
  4  5  1  0  0  0  0
  5  6  1  0  0  0  0
  6  7  1  0  0  0  0
  7  8  1  0  0  0  0
  8  9  1  0  0  0  0
  9 10  1  0  0  0  0
 10 11  1  0  0  0  0
 11 12  1  0  0  0  0
  7 12  1  0  0  0  0
  4 13  1  0  0  0  0
 13 14  2  0  0  0  0
 14 15  1  0  0  0  0
 15 16  2  0  0  0  0
 16 17  1  0  0  0  0
 17 18  2  0  0  0  0
 13 18  1  0  0  0  0
 18 19  1  0  0  0  0
 19 20  2  0  0  0  0
 20 21  1  0  0  0  0
 21 22  1  0  0  0  0
 22 23  1  0  0  0  0
 23 24  1  0  0  0  0
 24 25  1  0  0  0  0
 19 25  1  0  0  0  0
 20 26  1  0  0  0  0
 17 26  1  0  0  0  0
  2 27  1  0  0  0  0
 27 28  2  0  0  0  0
 28 29  1  0  0  0  0
 29 30  2  0  0  0  0
 30 31  1  0  0  0  0
 31 32  2  0  0  0  0
 27 32  1  0  0  0  0
M  END
> <ID>
CPD_1665

$$$$
CPD_1670
  Mrv1822 09091914012D          

 29 31  0  0  0  0            999 V2000
    2.1434   -0.4125    0.0000 C   0  0  0  0  0  0  0  0  0  0  0  0
    2.8579   -0.8250    0.0000 O   0  0  0  0  0  0  0  0  0  0  0  0
    2.8579   -1.6500    0.0000 C   0  0  0  0  0  0  0  0  0  0  0  0
    3.5724   -2.0625    0.0000 C   0  0  0  0  0  0  0  0  0  0  0  0
    3.5724   -2.8875    0.0000 C   0  0  0  0  0  0  0  0  0  0  0  0
    2.8579   -3.3000    0.0000 C   0  0  0  0  0  0  0  0  0  0  0  0
    2.1434   -2.8875    0.0000 C   0  0  0  0  0  0  0  0  0  0  0  0
    2.1434   -2.0625    0.0000 C   0  0  0  0  0  0  0  0  0  0  0  0
    2.8579   -4.1250    0.0000 S   0  0  0  0  0  0  0  0  0  0  0  0
    2.0329   -4.1250    0.0000 O   0  0  0  0  0  0  0  0  0  0  0  0
    3.6829   -4.1250    0.0000 O   0  0  0  0  0  0  0  0  0  0  0  0
    2.8579   -4.9500    0.0000 N   0  0  0  0  0  0  0  0  0  0  0  0
    3.5724   -5.3625    0.0000 C   0  0  0  0  0  0  0  0  0  0  0  0
    4.2868   -4.9500    0.0000 C   0  0  1  0  0  0  0  0  0  0  0  0
    4.2868   -4.1250    0.0000 C   0  0  0  0  0  0  0  0  0  0  0  0
    5.0013   -3.7125    0.0000 C   0  0  0  0  0  0  0  0  0  0  0  0
    5.7158   -4.1250    0.0000 C   0  0  2  0  0  0  0  0  0  0  0  0
    6.4302   -3.7125    0.0000 C   0  0  0  0  0  0  0  0  0  0  0  0
    6.4302   -2.8875    0.0000 N   0  0  0  0  0  0  0  0  0  0  0  0
    5.7158   -4.9500    0.0000 C   0  0  0  0  0  0  0  0  0  0  0  0
    5.0013   -5.3625    0.0000 C   0  0  0  0  0  0  0  0  0  0  0  0
    2.1434   -5.3625    0.0000 C   0  0  0  0  0  0  0  0  0  0  0  0
    2.1434   -6.1875    0.0000 C   0  0  0  0  0  0  0  0  0  0  0  0
    2.8579   -6.6000    0.0000 C   0  0  0  0  0  0  0  0  0  0  0  0
    1.4289   -6.6000    0.0000 C   0  0  0  0  0  0  0  0  0  0  0  0
    0.7145   -6.1875    0.0000 C   0  0  0  0  0  0  0  0  0  0  0  0
    0.7145   -5.3625    0.0000 C   0  0  0  0  0  0  0  0  0  0  0  0
   -0.0000   -4.9500    0.0000 C   0  0  0  0  0  0  0  0  0  0  0  0
    1.4289   -4.9500    0.0000 C   0  0  0  0  0  0  0  0  0  0  0  0
  1  2  1  0  0  0  0
  2  3  1  0  0  0  0
  3  4  2  0  0  0  0
  4  5  1  0  0  0  0
  5  6  2  0  0  0  0
  6  7  1  0  0  0  0
  7  8  2  0  0  0  0
  3  8  1  0  0  0  0
  6  9  1  0  0  0  0
  9 10  2  0  0  0  0
  9 11  2  0  0  0  0
  9 12  1  0  0  0  0
 12 13  1  0  0  0  0
 14 13  1  1  0  0  0
 14 15  1  0  0  0  0
 15 16  1  0  0  0  0
 17 16  1  0  0  0  0
 17 18  1  6  0  0  0
 18 19  1  0  0  0  0
 17 20  1  0  0  0  0
 20 21  1  0  0  0  0
 14 21  1  0  0  0  0
 12 22  1  0  0  0  0
 22 23  2  0  0  0  0
 23 24  1  0  0  0  0
 23 25  1  0  0  0  0
 25 26  2  0  0  0  0
 26 27  1  0  0  0  0
 27 28  1  0  0  0  0
 27 29  2  0  0  0  0
 22 29  1  0  0  0  0
M  END
> <ID>
CPD_1670

$$$$
CPD_1675
  Mrv1822 09091914012D          

 26 28  0  0  0  0            999 V2000
   -0.7145    1.2375    0.0000 C   0  0  0  0  0  0  0  0  0  0  0  0
    0.0000    0.8250    0.0000 C   0  0  0  0  0  0  0  0  0  0  0  0
    0.0000   -0.0000    0.0000 O   0  0  0  0  0  0  0  0  0  0  0  0
    0.7145   -0.4125    0.0000 C   0  0  0  0  0  0  0  0  0  0  0  0
    1.4289   -0.0000    0.0000 O   0  0  0  0  0  0  0  0  0  0  0  0
    0.7145   -1.2375    0.0000 N   0  0  0  0  0  0  0  0  0  0  0  0
    1.3819   -1.7224    0.0000 N   0  0  0  0  0  0  0  0  0  0  0  0
    1.1270   -2.5070    0.0000 C   0  0  0  0  0  0  0  0  0  0  0  0
    0.3020   -2.5070    0.0000 C   0  0  0  0  0  0  0  0  0  0  0  0
    0.0470   -1.7224    0.0000 C   0  0  0  0  0  0  0  0  0  0  0  0
   -0.7376   -1.4675    0.0000 N   0  0  0  0  0  0  0  0  0  0  0  0
   -0.9091   -0.6605    0.0000 C   0  0  0  0  0  0  0  0  0  0  0  0
   -1.6937   -0.4056    0.0000 C   0  0  0  0  0  0  0  0  0  0  0  0
   -1.8653    0.4014    0.0000 C   0  0  0  0  0  0  0  0  0  0  0  0
   -2.6189    0.7370    0.0000 C   0  0  0  0  0  0  0  0  0  0  0  0
   -2.5327    1.5574    0.0000 N   0  0  0  0  0  0  0  0  0  0  0  0
   -1.7257    1.7290    0.0000 C   0  0  0  0  0  0  0  0  0  0  0  0
   -1.3902    2.4826    0.0000 N   0  0  0  0  0  0  0  0  0  0  0  0
   -1.3132    1.0145    0.0000 S   0  0  0  0  0  0  0  0  0  0  0  0
    1.6119   -3.1745    0.0000 C   0  0  0  0  0  0  0  0  0  0  0  0
    2.4324   -3.0882    0.0000 C   0  0  0  0  0  0  0  0  0  0  0  0
    2.9173   -3.7557    0.0000 C   0  0  0  0  0  0  0  0  0  0  0  0
    2.5817   -4.5094    0.0000 C   0  0  0  0  0  0  0  0  0  0  0  0
    3.0667   -5.1768    0.0000 Cl  0  0  0  0  0  0  0  0  0  0  0  0
    1.7613   -4.5956    0.0000 C   0  0  0  0  0  0  0  0  0  0  0  0
    1.2763   -3.9282    0.0000 C   0  0  0  0  0  0  0  0  0  0  0  0
  1  2  1  0  0  0  0
  2  3  1  0  0  0  0
  3  4  1  0  0  0  0
  4  5  2  0  0  0  0
  4  6  1  0  0  0  0
  6  7  1  0  0  0  0
  7  8  2  0  0  0  0
  8  9  1  0  0  0  0
  9 10  2  0  0  0  0
  6 10  1  0  0  0  0
 10 11  1  0  0  0  0
 11 12  1  0  0  0  0
 12 13  1  0  0  0  0
 13 14  1  0  0  0  0
 14 15  2  0  0  0  0
 15 16  1  0  0  0  0
 16 17  2  0  0  0  0
 17 18  1  0  0  0  0
 17 19  1  0  0  0  0
 14 19  1  0  0  0  0
  8 20  1  0  0  0  0
 20 21  2  0  0  0  0
 21 22  1  0  0  0  0
 22 23  2  0  0  0  0
 23 24  1  0  0  0  0
 23 25  1  0  0  0  0
 25 26  2  0  0  0  0
 20 26  1  0  0  0  0
M  END
> <ID>
CPD_1675

$$$$
CPD_1680
  Mrv1822 09091914012D          

 28 31  0  0  0  0            999 V2000
   -0.0239    0.5388    0.0000 C   0  0  0  0  0  0  0  0  0  0  0  0
    0.5892   -0.0132    0.0000 C   0  0  0  0  0  0  0  0  0  0  0  0
    0.4176   -0.8202    0.0000 O   0  0  0  0  0  0  0  0  0  0  0  0
    1.0307   -1.3722    0.0000 C   0  0  0  0  0  0  0  0  0  0  0  0
    0.8592   -2.1792    0.0000 O   0  0  0  0  0  0  0  0  0  0  0  0
    1.8154   -1.1173    0.0000 N   0  0  0  0  0  0  0  0  0  0  0  0
    2.0703   -0.3327    0.0000 N   0  0  0  0  0  0  0  0  0  0  0  0
    2.8953   -0.3327    0.0000 C   0  0  0  0  0  0  0  0  0  0  0  0
    3.1502   -1.1173    0.0000 C   0  0  0  0  0  0  0  0  0  0  0  0
    2.4828   -1.6022    0.0000 C   0  0  0  0  0  0  0  0  0  0  0  0
    2.4828   -2.4272    0.0000 N   0  0  0  0  0  0  0  0  0  0  0  0
    3.1973   -2.8397    0.0000 C   0  0  0  0  0  0  0  0  0  0  0  0
    3.1973   -3.6647    0.0000 C   0  0  0  0  0  0  0  0  0  0  0  0
    3.6098   -4.3792    0.0000 C   0  0  0  0  0  0  0  0  0  0  0  0
    2.7848   -4.3792    0.0000 C   0  0  0  0  0  0  0  0  0  0  0  0
    3.9117   -2.4272    0.0000 C   0  0  0  0  0  0  0  0  0  0  0  0
    3.9117   -1.6022    0.0000 C   0  0  0  0  0  0  0  0  0  0  0  0
    4.6262   -1.1897    0.0000 C   0  0  0  0  0  0  0  0  0  0  0  0
    5.3407   -1.6022    0.0000 C   0  0  0  0  0  0  0  0  0  0  0  0
    5.3407   -2.4272    0.0000 C   0  0  0  0  0  0  0  0  0  0  0  0
    4.6262   -2.8397    0.0000 C   0  0  0  0  0  0  0  0  0  0  0  0
    3.3802    0.3348    0.0000 C   0  0  0  0  0  0  0  0  0  0  0  0
    3.0447    1.0884    0.0000 C   0  0  0  0  0  0  0  0  0  0  0  0
    3.5296    1.7559    0.0000 C   0  0  0  0  0  0  0  0  0  0  0  0
    4.3501    1.6696    0.0000 C   0  0  0  0  0  0  0  0  0  0  0  0
    4.8350    2.3371    0.0000 Cl  0  0  0  0  0  0  0  0  0  0  0  0
    4.6856    0.9160    0.0000 C   0  0  0  0  0  0  0  0  0  0  0  0
    4.2007    0.2485    0.0000 C   0  0  0  0  0  0  0  0  0  0  0  0
  1  2  1  0  0  0  0
  2  3  1  0  0  0  0
  3  4  1  0  0  0  0
  4  5  2  0  0  0  0
  4  6  1  0  0  0  0
  6  7  1  0  0  0  0
  7  8  2  0  0  0  0
  8  9  1  0  0  0  0
  9 10  2  0  0  0  0
  6 10  1  0  0  0  0
 10 11  1  0  0  0  0
 11 12  1  0  0  0  0
 12 13  1  0  0  0  0
 13 14  1  0  0  0  0
 14 15  1  0  0  0  0
 13 15  1  0  0  0  0
 12 16  1  0  0  0  0
 16 17  2  0  0  0  0
 17 18  1  0  0  0  0
 18 19  2  0  0  0  0
 19 20  1  0  0  0  0
 20 21  2  0  0  0  0
 16 21  1  0  0  0  0
  8 22  1  0  0  0  0
 22 23  2  0  0  0  0
 23 24  1  0  0  0  0
 24 25  2  0  0  0  0
 25 26  1  0  0  0  0
 25 27  1  0  0  0  0
 27 28  2  0  0  0  0
 22 28  1  0  0  0  0
M  END
> <ID>
CPD_1680

$$$$
CPD_1685
  Mrv1822 09091914012D          

 26 28  0  0  0  0            999 V2000
    2.0913    1.2813    0.0000 C   0  0  0  0  0  0  0  0  0  0  0  0
    2.8057    0.8688    0.0000 N   0  0  0  0  0  0  0  0  0  0  0  0
    2.8057    0.0438    0.0000 C   0  0  0  0  0  0  0  0  0  0  0  0
    2.0913   -0.3687    0.0000 C   0  0  0  0  0  0  0  0  0  0  0  0
    1.3768    0.0438    0.0000 C   0  0  0  0  0  0  0  0  0  0  0  0
    0.6623    0.4563    0.0000 N   0  0  0  0  0  0  0  0  0  0  0  0
    2.0913   -1.1937    0.0000 C   0  0  0  0  0  0  0  0  0  0  0  0
    1.3768   -1.6062    0.0000 Br  0  0  0  0  0  0  0  0  0  0  0  0
    2.8057   -1.6062    0.0000 C   0  0  0  0  0  0  0  0  0  0  0  0
    3.5202   -1.1937    0.0000 C   0  0  0  0  0  0  0  0  0  0  0  0
    3.5202   -0.3687    0.0000 C   0  0  0  0  0  0  0  0  0  0  0  0
    3.5202    1.2813    0.0000 C   0  0  0  0  0  0  0  0  0  0  0  0
    3.8024    0.5060    0.0000 C   0  0  0  0  0  0  0  0  0  0  0  0
    4.6148    0.3627    0.0000 O   0  0  0  0  0  0  0  0  0  0  0  0
    4.8970   -0.4125    0.0000 C   0  0  0  0  0  0  0  0  0  0  0  0
    5.7095   -0.5558    0.0000 C   0  0  0  0  0  0  0  0  0  0  0  0
    5.9916   -1.3310    0.0000 C   0  0  0  0  0  0  0  0  0  0  0  0
    5.4613   -1.9630    0.0000 C   0  0  0  0  0  0  0  0  0  0  0  0
    4.6489   -1.8197    0.0000 C   0  0  0  0  0  0  0  0  0  0  0  0
    4.1186   -2.4517    0.0000 F   0  0  0  0  0  0  0  0  0  0  0  0
    4.3667   -1.0445    0.0000 C   0  0  0  0  0  0  0  0  0  0  0  0
    2.9899    1.9132    0.0000 C   0  0  0  0  0  0  0  0  0  0  0  0
    3.2721    2.6885    0.0000 C   0  0  0  0  0  0  0  0  0  0  0  0
    4.0845    2.8317    0.0000 C   0  0  0  0  0  0  0  0  0  0  0  0
    4.6148    2.1998    0.0000 N   0  0  0  0  0  0  0  0  0  0  0  0
    4.3327    1.4245    0.0000 C   0  0  0  0  0  0  0  0  0  0  0  0
  1  2  1  0  0  0  0
  2  3  1  0  0  0  0
  3  4  2  0  0  0  0
  4  5  1  0  0  0  0
  5  6  3  0  0  0  0
  4  7  1  0  0  0  0
  7  8  1  0  0  0  0
  7  9  2  0  0  0  0
  9 10  1  0  0  0  0
 10 11  2  0  0  0  0
  3 11  1  0  0  0  0
  2 12  1  0  0  0  0
 12 13  1  0  0  0  0
 13 14  1  0  0  0  0
 14 15  1  0  0  0  0
 15 16  2  0  0  0  0
 16 17  1  0  0  0  0
 17 18  2  0  0  0  0
 18 19  1  0  0  0  0
 19 20  1  0  0  0  0
 19 21  2  0  0  0  0
 15 21  1  0  0  0  0
 12 22  1  0  0  0  0
 22 23  1  0  0  0  0
 23 24  1  0  0  0  0
 24 25  1  0  0  0  0
 25 26  1  0  0  0  0
 12 26  1  0  0  0  0
M  END
> <ID>
CPD_1685

$$$$
CPD_1690
  Mrv1822 09091914012D          

 30 33  0  0  0  0            999 V2000
    7.7858    1.9354    0.0000 C   0  0  0  0  0  0  0  0  0  0  0  0
    7.0714    1.5229    0.0000 C   0  0  0  0  0  0  0  0  0  0  0  0
    7.0714    0.6979    0.0000 C   0  0  0  0  0  0  0  0  0  0  0  0
    6.3569    0.2854    0.0000 C   0  0  0  0  0  0  0  0  0  0  0  0
    5.6424    0.6979    0.0000 C   0  0  0  0  0  0  0  0  0  0  0  0
    4.9279    0.2854    0.0000 C   0  0  0  0  0  0  0  0  0  0  0  0
    4.2135    0.6979    0.0000 C   0  0  0  0  0  0  0  0  0  0  0  0
    3.4990    0.2854    0.0000 N   0  0  0  0  0  0  0  0  0  0  0  0
    3.4990   -0.5396    0.0000 C   0  0  0  0  0  0  0  0  0  0  0  0
    4.2135   -0.9521    0.0000 C   0  0  0  0  0  0  0  0  0  0  0  0
    4.2135   -1.7771    0.0000 C   0  0  0  0  0  0  0  0  0  0  0  0
    4.9279   -2.1896    0.0000 F   0  0  0  0  0  0  0  0  0  0  0  0
    3.4990   -2.1896    0.0000 C   0  0  0  0  0  0  0  0  0  0  0  0
    3.4990   -3.0146    0.0000 C   0  0  0  0  0  0  0  0  0  0  0  0
    2.7845   -1.7771    0.0000 C   0  0  0  0  0  0  0  0  0  0  0  0
    2.7845   -0.9521    0.0000 C   0  0  0  0  0  0  0  0  0  0  0  0
    2.7845    0.6979    0.0000 S   0  0  0  0  0  0  0  0  0  0  0  0
    3.1970    1.4124    0.0000 O   0  0  0  0  0  0  0  0  0  0  0  0
    2.3720   -0.0165    0.0000 O   0  0  0  0  0  0  0  0  0  0  0  0
    2.0701    1.1104    0.0000 C   0  0  0  0  0  0  0  0  0  0  0  0
    1.3556    0.6979    0.0000 C   0  0  0  0  0  0  0  0  0  0  0  0
    0.6411    1.1104    0.0000 N   0  0  0  0  0  0  0  0  0  0  0  0
   -0.1435    0.8555    0.0000 C   0  0  0  0  0  0  0  0  0  0  0  0
   -0.6284    1.5229    0.0000 N   0  0  0  0  0  0  0  0  0  0  0  0
   -0.1435    2.1904    0.0000 N   0  0  0  0  0  0  0  0  0  0  0  0
    0.6411    1.9354    0.0000 C   0  0  0  0  0  0  0  0  0  0  0  0
    1.3556    2.3479    0.0000 C   0  0  0  0  0  0  0  0  0  0  0  0
    2.0701    1.9354    0.0000 C   0  0  0  0  0  0  0  0  0  0  0  0
    5.6424    1.5229    0.0000 C   0  0  0  0  0  0  0  0  0  0  0  0
    6.3569    1.9354    0.0000 C   0  0  0  0  0  0  0  0  0  0  0  0
  1  2  1  0  0  0  0
  2  3  2  0  0  0  0
  3  4  1  0  0  0  0
  4  5  2  0  0  0  0
  5  6  1  0  0  0  0
  6  7  1  0  0  0  0
  7  8  1  0  0  0  0
  8  9  1  0  0  0  0
  9 10  2  0  0  0  0
 10 11  1  0  0  0  0
 11 12  1  0  0  0  0
 11 13  2  0  0  0  0
 13 14  1  0  0  0  0
 13 15  1  0  0  0  0
 15 16  2  0  0  0  0
  9 16  1  0  0  0  0
  8 17  1  0  0  0  0
 17 18  2  0  0  0  0
 17 19  2  0  0  0  0
 17 20  1  0  0  0  0
 20 21  2  0  0  0  0
 21 22  1  0  0  0  0
 22 23  1  0  0  0  0
 23 24  2  0  0  0  0
 24 25  1  0  0  0  0
 25 26  2  0  0  0  0
 22 26  1  0  0  0  0
 26 27  1  0  0  0  0
 27 28  2  0  0  0  0
 20 28  1  0  0  0  0
  5 29  1  0  0  0  0
 29 30  2  0  0  0  0
  2 30  1  0  0  0  0
M  END
> <ID>
CPD_1690

$$$$
CPD_1695
  Mrv1822 09091914012D          

 30 33  0  0  0  0            999 V2000
    3.4990   -3.0146    0.0000 C   0  0  0  0  0  0  0  0  0  0  0  0
    3.4990   -2.1896    0.0000 C   0  0  0  0  0  0  0  0  0  0  0  0
    2.7845   -1.7771    0.0000 C   0  0  0  0  0  0  0  0  0  0  0  0
    2.0701   -2.1896    0.0000 F   0  0  0  0  0  0  0  0  0  0  0  0
    2.7845   -0.9521    0.0000 C   0  0  0  0  0  0  0  0  0  0  0  0
    3.4990   -0.5396    0.0000 C   0  0  0  0  0  0  0  0  0  0  0  0
    4.2135   -0.9521    0.0000 C   0  0  0  0  0  0  0  0  0  0  0  0
    4.2135   -1.7771    0.0000 C   0  0  0  0  0  0  0  0  0  0  0  0
    3.4990    0.2854    0.0000 N   0  0  0  0  0  0  0  0  0  0  0  0
    4.2135    0.6979    0.0000 C   0  0  0  0  0  0  0  0  0  0  0  0
    4.9279    0.2854    0.0000 C   0  0  0  0  0  0  0  0  0  0  0  0
    5.6424    0.6979    0.0000 C   0  0  0  0  0  0  0  0  0  0  0  0
    5.6424    1.5229    0.0000 C   0  0  0  0  0  0  0  0  0  0  0  0
    6.3569    1.9354    0.0000 C   0  0  0  0  0  0  0  0  0  0  0  0
    7.0714    1.5229    0.0000 C   0  0  0  0  0  0  0  0  0  0  0  0
    7.0714    0.6979    0.0000 C   0  0  0  0  0  0  0  0  0  0  0  0
    6.3569    0.2854    0.0000 C   0  0  0  0  0  0  0  0  0  0  0  0
    6.3569   -0.5396    0.0000 N   0  0  0  0  0  0  0  0  0  0  0  0
    2.7845    0.6979    0.0000 S   0  0  0  0  0  0  0  0  0  0  0  0
    3.1970    1.4124    0.0000 O   0  0  0  0  0  0  0  0  0  0  0  0
    2.3720   -0.0165    0.0000 O   0  0  0  0  0  0  0  0  0  0  0  0
    2.0701    1.1104    0.0000 C   0  0  0  0  0  0  0  0  0  0  0  0
    1.3556    0.6979    0.0000 C   0  0  0  0  0  0  0  0  0  0  0  0
    0.6411    1.1104    0.0000 N   0  0  0  0  0  0  0  0  0  0  0  0
   -0.1435    0.8555    0.0000 C   0  0  0  0  0  0  0  0  0  0  0  0
   -0.6284    1.5229    0.0000 N   0  0  0  0  0  0  0  0  0  0  0  0
   -0.1435    2.1904    0.0000 N   0  0  0  0  0  0  0  0  0  0  0  0
    0.6411    1.9354    0.0000 C   0  0  0  0  0  0  0  0  0  0  0  0
    1.3556    2.3479    0.0000 C   0  0  0  0  0  0  0  0  0  0  0  0
    2.0701    1.9354    0.0000 C   0  0  0  0  0  0  0  0  0  0  0  0
  1  2  1  0  0  0  0
  2  3  2  0  0  0  0
  3  4  1  0  0  0  0
  3  5  1  0  0  0  0
  5  6  2  0  0  0  0
  6  7  1  0  0  0  0
  7  8  2  0  0  0  0
  2  8  1  0  0  0  0
  6  9  1  0  0  0  0
  9 10  1  0  0  0  0
 10 11  1  0  0  0  0
 11 12  1  0  0  0  0
 12 13  2  0  0  0  0
 13 14  1  0  0  0  0
 14 15  2  0  0  0  0
 15 16  1  0  0  0  0
 16 17  2  0  0  0  0
 12 17  1  0  0  0  0
 17 18  1  0  0  0  0
  9 19  1  0  0  0  0
 19 20  2  0  0  0  0
 19 21  2  0  0  0  0
 19 22  1  0  0  0  0
 22 23  2  0  0  0  0
 23 24  1  0  0  0  0
 24 25  1  0  0  0  0
 25 26  2  0  0  0  0
 26 27  1  0  0  0  0
 27 28  2  0  0  0  0
 24 28  1  0  0  0  0
 28 29  1  0  0  0  0
 29 30  2  0  0  0  0
 22 30  1  0  0  0  0
M  END
> <ID>
CPD_1695

$$$$
CPD_1700
  Mrv1822 09091914012D          

 31 34  0  0  0  0            999 V2000
    3.4990   -3.0146    0.0000 C   0  0  0  0  0  0  0  0  0  0  0  0
    3.4990   -2.1896    0.0000 C   0  0  0  0  0  0  0  0  0  0  0  0
    2.7845   -1.7771    0.0000 C   0  0  0  0  0  0  0  0  0  0  0  0
    2.0701   -2.1896    0.0000 F   0  0  0  0  0  0  0  0  0  0  0  0
    2.7845   -0.9521    0.0000 C   0  0  0  0  0  0  0  0  0  0  0  0
    3.4990   -0.5396    0.0000 C   0  0  0  0  0  0  0  0  0  0  0  0
    4.2135   -0.9521    0.0000 C   0  0  0  0  0  0  0  0  0  0  0  0
    4.2135   -1.7771    0.0000 C   0  0  0  0  0  0  0  0  0  0  0  0
    3.4990    0.2854    0.0000 N   0  0  0  0  0  0  0  0  0  0  0  0
    4.2135    0.6979    0.0000 C   0  0  0  0  0  0  0  0  0  0  0  0
    4.9279    0.2854    0.0000 C   0  0  0  0  0  0  0  0  0  0  0  0
    5.6424    0.6979    0.0000 C   0  0  0  0  0  0  0  0  0  0  0  0
    6.3569    0.2854    0.0000 C   0  0  0  0  0  0  0  0  0  0  0  0
    7.0714    0.6979    0.0000 C   0  0  0  0  0  0  0  0  0  0  0  0
    7.7858    0.2854    0.0000 C   0  0  0  0  0  0  0  0  0  0  0  0
    7.7858   -0.5396    0.0000 C   0  0  0  0  0  0  0  0  0  0  0  0
    8.5003   -0.9521    0.0000 O   0  0  0  0  0  0  0  0  0  0  0  0
    7.0714   -0.9521    0.0000 C   0  0  0  0  0  0  0  0  0  0  0  0
    6.3569   -0.5396    0.0000 C   0  0  0  0  0  0  0  0  0  0  0  0
    2.7845    0.6979    0.0000 S   0  0  0  0  0  0  0  0  0  0  0  0
    3.1970    1.4124    0.0000 O   0  0  0  0  0  0  0  0  0  0  0  0
    2.3720   -0.0165    0.0000 O   0  0  0  0  0  0  0  0  0  0  0  0
    2.0701    1.1104    0.0000 C   0  0  0  0  0  0  0  0  0  0  0  0
    1.3556    0.6979    0.0000 C   0  0  0  0  0  0  0  0  0  0  0  0
    0.6411    1.1104    0.0000 N   0  0  0  0  0  0  0  0  0  0  0  0
   -0.1435    0.8555    0.0000 C   0  0  0  0  0  0  0  0  0  0  0  0
   -0.6284    1.5229    0.0000 N   0  0  0  0  0  0  0  0  0  0  0  0
   -0.1435    2.1904    0.0000 N   0  0  0  0  0  0  0  0  0  0  0  0
    0.6411    1.9354    0.0000 C   0  0  0  0  0  0  0  0  0  0  0  0
    1.3556    2.3479    0.0000 C   0  0  0  0  0  0  0  0  0  0  0  0
    2.0701    1.9354    0.0000 C   0  0  0  0  0  0  0  0  0  0  0  0
  1  2  1  0  0  0  0
  2  3  2  0  0  0  0
  3  4  1  0  0  0  0
  3  5  1  0  0  0  0
  5  6  2  0  0  0  0
  6  7  1  0  0  0  0
  7  8  2  0  0  0  0
  2  8  1  0  0  0  0
  6  9  1  0  0  0  0
  9 10  1  0  0  0  0
 10 11  1  0  0  0  0
 11 12  1  0  0  0  0
 12 13  1  0  0  0  0
 13 14  2  0  0  0  0
 14 15  1  0  0  0  0
 15 16  2  0  0  0  0
 16 17  1  0  0  0  0
 16 18  1  0  0  0  0
 18 19  2  0  0  0  0
 13 19  1  0  0  0  0
  9 20  1  0  0  0  0
 20 21  2  0  0  0  0
 20 22  2  0  0  0  0
 20 23  1  0  0  0  0
 23 24  2  0  0  0  0
 24 25  1  0  0  0  0
 25 26  1  0  0  0  0
 26 27  2  0  0  0  0
 27 28  1  0  0  0  0
 28 29  2  0  0  0  0
 25 29  1  0  0  0  0
 29 30  1  0  0  0  0
 30 31  2  0  0  0  0
 23 31  1  0  0  0  0
M  END
> <ID>
CPD_1700

$$$$
CPD_1705
  Mrv1822 09091914012D          

 34 38  0  0  0  0            999 V2000
   -2.4764   -5.3099    0.0000 C   0  0  0  0  0  0  0  0  0  0  0  0
   -3.2610   -5.0549    0.0000 C   0  0  0  0  0  0  0  0  0  0  0  0
   -3.9284   -5.5398    0.0000 N   0  0  0  0  0  0  0  0  0  0  0  0
   -4.5959   -5.0549    0.0000 N   0  0  0  0  0  0  0  0  0  0  0  0
   -4.3409   -4.2703    0.0000 C   0  0  0  0  0  0  0  0  0  0  0  0
   -4.7534   -3.5558    0.0000 C   0  0  0  0  0  0  0  0  0  0  0  0
   -4.3409   -2.8414    0.0000 C   0  0  0  0  0  0  0  0  0  0  0  0
   -3.5159   -2.8414    0.0000 C   0  0  0  0  0  0  0  0  0  0  0  0
   -3.1034   -3.5558    0.0000 C   0  0  0  0  0  0  0  0  0  0  0  0
   -3.5159   -4.2703    0.0000 N   0  0  0  0  0  0  0  0  0  0  0  0
   -3.1034   -2.1269    0.0000 S   0  0  0  0  0  0  0  0  0  0  0  0
   -2.3890   -2.5394    0.0000 O   0  0  0  0  0  0  0  0  0  0  0  0
   -3.8179   -1.7144    0.0000 O   0  0  0  0  0  0  0  0  0  0  0  0
   -2.6909   -1.4124    0.0000 N   0  0  0  0  0  0  0  0  0  0  0  0
   -1.8659   -1.4124    0.0000 C   0  0  0  0  0  0  0  0  0  0  0  0
   -1.4534   -0.6979    0.0000 C   0  0  0  0  0  0  0  0  0  0  0  0
   -0.6284   -0.6979    0.0000 C   0  0  0  0  0  0  0  0  0  0  0  0
   -0.1435   -1.3654    0.0000 N   0  0  0  0  0  0  0  0  0  0  0  0
    0.6411   -1.1104    0.0000 C   0  0  0  0  0  0  0  0  0  0  0  0
    0.6411   -0.2854    0.0000 C   0  0  0  0  0  0  0  0  0  0  0  0
   -0.1435   -0.0305    0.0000 N   0  0  0  0  0  0  0  0  0  0  0  0
    1.3556    0.1271    0.0000 C   0  0  0  0  0  0  0  0  0  0  0  0
    2.0701   -0.2854    0.0000 C   0  0  0  0  0  0  0  0  0  0  0  0
    2.7845    0.1271    0.0000 Cl  0  0  0  0  0  0  0  0  0  0  0  0
    2.0701   -1.1104    0.0000 C   0  0  0  0  0  0  0  0  0  0  0  0
    1.3556   -1.5229    0.0000 C   0  0  0  0  0  0  0  0  0  0  0  0
   -3.1034   -0.6979    0.0000 C   0  0  0  0  0  0  0  0  0  0  0  0
   -3.9284   -0.6979    0.0000 C   0  0  0  0  0  0  0  0  0  0  0  0
   -4.3409    0.0165    0.0000 C   0  0  0  0  0  0  0  0  0  0  0  0
   -5.1659    0.0165    0.0000 F   0  0  0  0  0  0  0  0  0  0  0  0
   -3.9284    0.7310    0.0000 C   0  0  0  0  0  0  0  0  0  0  0  0
   -3.1034    0.7310    0.0000 C   0  0  0  0  0  0  0  0  0  0  0  0
   -2.6909    1.4455    0.0000 F   0  0  0  0  0  0  0  0  0  0  0  0
   -2.6909    0.0165    0.0000 C   0  0  0  0  0  0  0  0  0  0  0  0
  1  2  1  0  0  0  0
  2  3  2  0  0  0  0
  3  4  1  0  0  0  0
  4  5  2  0  0  0  0
  5  6  1  0  0  0  0
  6  7  2  0  0  0  0
  7  8  1  0  0  0  0
  8  9  2  0  0  0  0
  9 10  1  0  0  0  0
  2 10  1  0  0  0  0
  5 10  1  0  0  0  0
  8 11  1  0  0  0  0
 11 12  2  0  0  0  0
 11 13  2  0  0  0  0
 11 14  1  0  0  0  0
 14 15  1  0  0  0  0
 15 16  1  0  0  0  0
 16 17  1  0  0  0  0
 17 18  2  0  0  0  0
 18 19  1  0  0  0  0
 19 20  2  0  0  0  0
 20 21  1  0  0  0  0
 17 21  1  0  0  0  0
 20 22  1  0  0  0  0
 22 23  2  0  0  0  0
 23 24  1  0  0  0  0
 23 25  1  0  0  0  0
 25 26  2  0  0  0  0
 19 26  1  0  0  0  0
 14 27  1  0  0  0  0
 27 28  2  0  0  0  0
 28 29  1  0  0  0  0
 29 30  1  0  0  0  0
 29 31  2  0  0  0  0
 31 32  1  0  0  0  0
 32 33  1  0  0  0  0
 32 34  2  0  0  0  0
 27 34  1  0  0  0  0
M  END
> <ID>
CPD_1705

$$$$
CPD_1710
  Mrv1822 09091914012D          

 35 38  0  0  0  0            999 V2000
    8.5003    1.5229    0.0000 C   0  0  0  0  0  0  0  0  0  0  0  0
    7.7858    1.9354    0.0000 N   0  0  0  0  0  0  0  0  0  0  0  0
    7.7858    2.7604    0.0000 C   0  0  0  0  0  0  0  0  0  0  0  0
    7.0714    1.5229    0.0000 C   0  0  0  0  0  0  0  0  0  0  0  0
    6.3569    1.9354    0.0000 C   0  0  0  0  0  0  0  0  0  0  0  0
    5.6424    1.5229    0.0000 O   0  0  0  0  0  0  0  0  0  0  0  0
    4.9279    1.9354    0.0000 C   0  0  0  0  0  0  0  0  0  0  0  0
    4.2135    1.5229    0.0000 C   0  0  0  0  0  0  0  0  0  0  0  0
    4.2135    0.6979    0.0000 C   0  0  0  0  0  0  0  0  0  0  0  0
    3.4990    0.2854    0.0000 N   0  0  0  0  0  0  0  0  0  0  0  0
    3.4990   -0.5396    0.0000 C   0  0  0  0  0  0  0  0  0  0  0  0
    4.2135   -0.9521    0.0000 C   0  0  0  0  0  0  0  0  0  0  0  0
    4.2135   -1.7771    0.0000 C   0  0  0  0  0  0  0  0  0  0  0  0
    4.9279   -2.1896    0.0000 F   0  0  0  0  0  0  0  0  0  0  0  0
    3.4990   -2.1896    0.0000 C   0  0  0  0  0  0  0  0  0  0  0  0
    2.7845   -1.7771    0.0000 C   0  0  0  0  0  0  0  0  0  0  0  0
    2.0701   -2.1896    0.0000 F   0  0  0  0  0  0  0  0  0  0  0  0
    2.7845   -0.9521    0.0000 C   0  0  0  0  0  0  0  0  0  0  0  0
    2.7845    0.6979    0.0000 S   0  0  0  0  0  0  0  0  0  0  0  0
    3.1970    1.4124    0.0000 O   0  0  0  0  0  0  0  0  0  0  0  0
    2.3720   -0.0165    0.0000 O   0  0  0  0  0  0  0  0  0  0  0  0
    2.0701    1.1104    0.0000 C   0  0  0  0  0  0  0  0  0  0  0  0
    1.3556    0.6979    0.0000 C   0  0  0  0  0  0  0  0  0  0  0  0
    0.6411    1.1104    0.0000 N   0  0  0  0  0  0  0  0  0  0  0  0
   -0.1435    0.8555    0.0000 C   0  0  0  0  0  0  0  0  0  0  0  0
   -0.3984    0.0709    0.0000 C   0  0  0  0  0  0  0  0  0  0  0  0
   -0.6284    1.5229    0.0000 N   0  0  0  0  0  0  0  0  0  0  0  0
   -0.1435    2.1904    0.0000 N   0  0  0  0  0  0  0  0  0  0  0  0
    0.6411    1.9354    0.0000 C   0  0  0  0  0  0  0  0  0  0  0  0
    1.3556    2.3479    0.0000 C   0  0  0  0  0  0  0  0  0  0  0  0
    2.0701    1.9354    0.0000 C   0  0  0  0  0  0  0  0  0  0  0  0
    3.4990    1.9354    0.0000 C   0  0  0  0  0  0  0  0  0  0  0  0
    3.4990    2.7604    0.0000 C   0  0  0  0  0  0  0  0  0  0  0  0
    4.2135    3.1729    0.0000 C   0  0  0  0  0  0  0  0  0  0  0  0
    4.9279    2.7604    0.0000 C   0  0  0  0  0  0  0  0  0  0  0  0
  1  2  1  0  0  0  0
  2  3  1  0  0  0  0
  2  4  1  0  0  0  0
  4  5  1  0  0  0  0
  5  6  1  0  0  0  0
  6  7  1  0  0  0  0
  7  8  2  0  0  0  0
  8  9  1  0  0  0  0
  9 10  1  0  0  0  0
 10 11  1  0  0  0  0
 11 12  2  0  0  0  0
 12 13  1  0  0  0  0
 13 14  1  0  0  0  0
 13 15  2  0  0  0  0
 15 16  1  0  0  0  0
 16 17  1  0  0  0  0
 16 18  2  0  0  0  0
 11 18  1  0  0  0  0
 10 19  1  0  0  0  0
 19 20  2  0  0  0  0
 19 21  2  0  0  0  0
 19 22  1  0  0  0  0
 22 23  2  0  0  0  0
 23 24  1  0  0  0  0
 24 25  1  0  0  0  0
 25 26  1  0  0  0  0
 25 27  2  0  0  0  0
 27 28  1  0  0  0  0
 28 29  2  0  0  0  0
 24 29  1  0  0  0  0
 29 30  1  0  0  0  0
 30 31  2  0  0  0  0
 22 31  1  0  0  0  0
  8 32  1  0  0  0  0
 32 33  2  0  0  0  0
 33 34  1  0  0  0  0
 34 35  2  0  0  0  0
  7 35  1  0  0  0  0
M  END
> <ID>
CPD_1710

$$$$
CPD_1715
  Mrv1822 09091914012D          

 29 31  0  0  0  0            999 V2000
    1.4289   -4.9500    0.0000 C   0  0  0  0  0  0  0  0  0  0  0  0
    2.1434   -4.5375    0.0000 C   0  0  0  0  0  0  0  0  0  0  0  0
    2.8579   -4.9500    0.0000 C   0  0  0  0  0  0  0  0  0  0  0  0
    3.5724   -4.5375    0.0000 C   0  0  0  0  0  0  0  0  0  0  0  0
    4.2868   -4.9500    0.0000 C   0  0  0  0  0  0  0  0  0  0  0  0
    5.0013   -4.5375    0.0000 C   0  0  0  0  0  0  0  0  0  0  0  0
    5.7158   -4.9500    0.0000 C   0  0  0  0  0  0  0  0  0  0  0  0
    6.4302   -4.5375    0.0000 N   0  0  0  0  0  0  0  0  0  0  0  0
    6.4302   -3.7125    0.0000 C   0  0  0  0  0  0  0  0  0  0  0  0
    5.7158   -3.3000    0.0000 C   0  0  0  0  0  0  0  0  0  0  0  0
    5.7158   -2.4750    0.0000 C   0  0  0  0  0  0  0  0  0  0  0  0
    5.0013   -2.0625    0.0000 F   0  0  0  0  0  0  0  0  0  0  0  0
    6.4302   -2.0625    0.0000 C   0  0  0  0  0  0  0  0  0  0  0  0
    7.1447   -2.4750    0.0000 C   0  0  0  0  0  0  0  0  0  0  0  0
    7.8592   -2.0625    0.0000 F   0  0  0  0  0  0  0  0  0  0  0  0
    7.1447   -3.3000    0.0000 C   0  0  0  0  0  0  0  0  0  0  0  0
    7.1447   -4.9500    0.0000 S   0  0  0  0  0  0  0  0  0  0  0  0
    6.7322   -5.6645    0.0000 O   0  0  0  0  0  0  0  0  0  0  0  0
    7.5572   -4.2355    0.0000 O   0  0  0  0  0  0  0  0  0  0  0  0
    7.8592   -5.3625    0.0000 C   0  0  0  0  0  0  0  0  0  0  0  0
    8.5737   -4.9500    0.0000 C   0  0  0  0  0  0  0  0  0  0  0  0
    9.2881   -5.3625    0.0000 N   0  0  0  0  0  0  0  0  0  0  0  0
   10.0727   -5.1076    0.0000 C   0  0  0  0  0  0  0  0  0  0  0  0
   10.3277   -4.3229    0.0000 C   0  0  0  0  0  0  0  0  0  0  0  0
   10.5577   -5.7750    0.0000 N   0  0  0  0  0  0  0  0  0  0  0  0
   10.0727   -6.4424    0.0000 N   0  0  0  0  0  0  0  0  0  0  0  0
    9.2881   -6.1875    0.0000 C   0  0  0  0  0  0  0  0  0  0  0  0
    8.5737   -6.6000    0.0000 C   0  0  0  0  0  0  0  0  0  0  0  0
    7.8592   -6.1875    0.0000 C   0  0  0  0  0  0  0  0  0  0  0  0
  1  2  1  0  0  0  0
  2  3  1  0  0  0  0
  3  4  1  0  0  0  0
  4  5  1  0  0  0  0
  5  6  1  0  0  0  0
  6  7  1  0  0  0  0
  7  8  1  0  0  0  0
  8  9  1  0  0  0  0
  9 10  2  0  0  0  0
 10 11  1  0  0  0  0
 11 12  1  0  0  0  0
 11 13  2  0  0  0  0
 13 14  1  0  0  0  0
 14 15  1  0  0  0  0
 14 16  2  0  0  0  0
  9 16  1  0  0  0  0
  8 17  1  0  0  0  0
 17 18  2  0  0  0  0
 17 19  2  0  0  0  0
 17 20  1  0  0  0  0
 20 21  2  0  0  0  0
 21 22  1  0  0  0  0
 22 23  1  0  0  0  0
 23 24  1  0  0  0  0
 23 25  2  0  0  0  0
 25 26  1  0  0  0  0
 26 27  2  0  0  0  0
 22 27  1  0  0  0  0
 27 28  1  0  0  0  0
 28 29  2  0  0  0  0
 20 29  1  0  0  0  0
M  END
> <ID>
CPD_1715

$$$$
CPD_1720
  Mrv1822 09091914012D          

 21 23  0  0  0  0            999 V2000
   -6.1138    6.7675    0.0000 C   0  0  0  0  0  0  0  0  0  0  0  0
   -5.3291    7.0224    0.0000 O   0  0  0  0  0  0  0  0  0  0  0  0
   -4.7161    6.4704    0.0000 C   0  0  0  0  0  0  0  0  0  0  0  0
   -3.9314    6.7253    0.0000 C   0  0  0  0  0  0  0  0  0  0  0  0
   -3.3183    6.1733    0.0000 C   0  0  0  0  0  0  0  0  0  0  0  0
   -2.5337    6.4282    0.0000 C   0  0  0  0  0  0  0  0  0  0  0  0
   -1.9206    5.8762    0.0000 N   0  0  0  0  0  0  0  0  0  0  0  0
   -1.1360    6.1311    0.0000 C   0  0  0  0  0  0  0  0  0  0  0  0
   -0.8811    6.9158    0.0000 C   0  0  0  0  0  0  0  0  0  0  0  0
   -0.0561    6.9158    0.0000 C   0  0  0  0  0  0  0  0  0  0  0  0
    0.1989    6.1311    0.0000 N   0  0  0  0  0  0  0  0  0  0  0  0
   -0.4686    5.6462    0.0000 N   0  0  0  0  0  0  0  0  0  0  0  0
   -0.4686    4.8212    0.0000 C   0  0  0  0  0  0  0  0  0  0  0  0
    0.1148    4.2379    0.0000 C   0  0  0  0  0  0  0  0  0  0  0  0
   -0.4686    3.6545    0.0000 O   0  0  0  0  0  0  0  0  0  0  0  0
   -1.0519    4.2379    0.0000 C   0  0  0  0  0  0  0  0  0  0  0  0
   -3.4899    5.3663    0.0000 C   0  0  0  0  0  0  0  0  0  0  0  0
   -2.8768    4.8143    0.0000 C   0  0  0  0  0  0  0  0  0  0  0  0
   -3.0483    4.0073    0.0000 O   0  0  0  0  0  0  0  0  0  0  0  0
   -4.2745    5.1114    0.0000 C   0  0  0  0  0  0  0  0  0  0  0  0
   -4.8876    5.6634    0.0000 C   0  0  0  0  0  0  0  0  0  0  0  0
  1  2  1  0  0  0  0
  2  3  1  0  0  0  0
  3  4  2  0  0  0  0
  4  5  1  0  0  0  0
  5  6  1  0  0  0  0
  6  7  1  0  0  0  0
  7  8  1  0  0  0  0
  8  9  2  0  0  0  0
  9 10  1  0  0  0  0
 10 11  2  0  0  0  0
 11 12  1  0  0  0  0
  8 12  1  0  0  0  0
 12 13  1  0  0  0  0
 13 14  1  0  0  0  0
 14 15  1  0  0  0  0
 15 16  1  0  0  0  0
 13 16  1  0  0  0  0
  5 17  2  0  0  0  0
 17 18  1  0  0  0  0
 18 19  1  0  0  0  0
 17 20  1  0  0  0  0
 20 21  2  0  0  0  0
  3 21  1  0  0  0  0
M  END
> <ID>
CPD_1720

$$$$
CPD_1725
  Mrv1822 09091914012D          

 22 24  0  0  0  0            999 V2000
   -2.8579    0.0000    0.0000 C   0  0  0  0  0  0  0  0  0  0  0  0
   -2.1434   -0.4125    0.0000 O   0  0  0  0  0  0  0  0  0  0  0  0
   -1.4289   -0.0000    0.0000 C   0  0  0  0  0  0  0  0  0  0  0  0
   -0.7145   -0.4125    0.0000 C   0  0  0  0  0  0  0  0  0  0  0  0
    0.0000   -0.0000    0.0000 C   0  0  0  0  0  0  0  0  0  0  0  0
    0.0000    0.8250    0.0000 C   0  0  0  0  0  0  0  0  0  0  0  0
    0.7145    1.2375    0.0000 N   0  0  0  0  0  0  0  0  0  0  0  0
    1.4289    0.8250    0.0000 C   0  0  0  0  0  0  0  0  0  0  0  0
    1.4289   -0.0000    0.0000 C   0  0  0  0  0  0  0  0  0  0  0  0
    0.7145   -0.4125    0.0000 N   0  0  0  0  0  0  0  0  0  0  0  0
    0.7145   -1.2375    0.0000 C   0  0  0  0  0  0  0  0  0  0  0  0
    1.3819   -1.7224    0.0000 C   0  0  0  0  0  0  0  0  0  0  0  0
    1.1270   -2.5070    0.0000 C   0  0  0  0  0  0  0  0  0  0  0  0
    0.3020   -2.5070    0.0000 N   0  0  0  0  0  0  0  0  0  0  0  0
    0.0470   -1.7224    0.0000 C   0  0  0  0  0  0  0  0  0  0  0  0
   -0.1830   -3.1745    0.0000 C   0  0  0  0  0  0  0  0  0  0  0  0
    0.1526   -3.9282    0.0000 N   0  0  0  0  0  0  0  0  0  0  0  0
   -0.3323   -4.5956    0.0000 C   0  0  0  0  0  0  0  0  0  0  0  0
   -1.1528   -4.5094    0.0000 N   0  0  0  0  0  0  0  0  0  0  0  0
   -1.4884   -3.7557    0.0000 C   0  0  0  0  0  0  0  0  0  0  0  0
   -1.0034   -3.0882    0.0000 C   0  0  0  0  0  0  0  0  0  0  0  0
   -1.3390   -2.3346    0.0000 C   0  0  0  0  0  0  0  0  0  0  0  0
  1  2  1  0  0  0  0
  2  3  1  0  0  0  0
  3  4  1  0  0  0  0
  4  5  1  0  0  0  0
  5  6  1  0  0  0  0
  6  7  1  0  0  0  0
  7  8  1  0  0  0  0
  8  9  1  0  0  0  0
  9 10  1  0  0  0  0
  5 10  1  0  0  0  0
 10 11  1  0  0  0  0
 11 12  1  0  0  0  0
 12 13  1  0  0  0  0
 13 14  1  0  0  0  0
 14 15  1  0  0  0  0
 11 15  1  0  0  0  0
 14 16  1  0  0  0  0
 16 17  2  0  0  0  0
 17 18  1  0  0  0  0
 18 19  2  0  0  0  0
 19 20  1  0  0  0  0
 20 21  2  0  0  0  0
 16 21  1  0  0  0  0
 21 22  1  0  0  0  0
M  END
> <ID>
CPD_1725

$$$$
CPD_1730
  Mrv1822 09091914012D          

 22 24  0  0  0  0            999 V2000
   -2.1434   10.8911    0.0000 C   0  0  0  0  0  0  0  0  0  0  0  0
   -1.4289   10.4786    0.0000 O   0  0  0  0  0  0  0  0  0  0  0  0
   -1.4289    9.6536    0.0000 C   0  0  0  0  0  0  0  0  0  0  0  0
   -0.7145    9.2411    0.0000 C   0  0  0  0  0  0  0  0  0  0  0  0
   -0.7145    8.4161    0.0000 C   0  0  0  0  0  0  0  0  0  0  0  0
   -0.0000    8.0036    0.0000 C   0  0  0  0  0  0  0  0  0  0  0  0
   -0.0000    7.1786    0.0000 N   0  0  0  0  0  0  0  0  0  0  0  0
    0.7145    6.7661    0.0000 C   0  0  0  0  0  0  0  0  0  0  0  0
    0.7145    5.9411    0.0000 C   0  0  0  0  0  0  0  0  0  0  0  0
    1.4289    5.5286    0.0000 C   0  0  0  0  0  0  0  0  0  0  0  0
    1.4289    4.7036    0.0000 C   0  0  0  0  0  0  0  0  0  0  0  0
    0.7145    4.2911    0.0000 C   0  0  0  0  0  0  0  0  0  0  0  0
    0.0000    4.7036    0.0000 C   0  0  0  0  0  0  0  0  0  0  0  0
   -0.0000    5.5286    0.0000 C   0  0  0  0  0  0  0  0  0  0  0  0
    0.7145    3.4661    0.0000 N   0  0  0  0  0  0  0  0  0  0  0  0
    1.3819    2.9812    0.0000 C   0  0  0  0  0  0  0  0  0  0  0  0
    1.1270    2.1965    0.0000 C   0  0  0  0  0  0  0  0  0  0  0  0
    0.3020    2.1965    0.0000 C   0  0  0  0  0  0  0  0  0  0  0  0
    0.0470    2.9812    0.0000 C   0  0  0  0  0  0  0  0  0  0  0  0
   -0.7145    6.7661    0.0000 C   0  0  0  0  0  0  0  0  0  0  0  0
   -1.4289    7.1786    0.0000 C   0  0  0  0  0  0  0  0  0  0  0  0
   -1.4289    8.0036    0.0000 N   0  0  0  0  0  0  0  0  0  0  0  0
  1  2  1  0  0  0  0
  2  3  1  0  0  0  0
  3  4  1  0  0  0  0
  4  5  1  0  0  0  0
  5  6  1  0  0  0  0
  6  7  1  0  0  0  0
  7  8  1  0  0  0  0
  8  9  1  0  0  0  0
  9 10  2  0  0  0  0
 10 11  1  0  0  0  0
 11 12  2  0  0  0  0
 12 13  1  0  0  0  0
 13 14  2  0  0  0  0
  9 14  1  0  0  0  0
 12 15  1  0  0  0  0
 15 16  1  0  0  0  0
 16 17  1  0  0  0  0
 17 18  1  0  0  0  0
 18 19  1  0  0  0  0
 15 19  1  0  0  0  0
  7 20  1  0  0  0  0
 20 21  1  0  0  0  0
 21 22  1  0  0  0  0
  5 22  1  0  0  0  0
M  END
> <ID>
CPD_1730

$$$$
CPD_1735
  Mrv1822 09091914012D          

 20 21  0  0  0  0            999 V2000
   -0.7145    1.2375    0.0000 C   0  0  0  0  0  0  0  0  0  0  0  0
    0.0000    0.8250    0.0000 O   0  0  0  0  0  0  0  0  0  0  0  0
    0.0000    0.0000    0.0000 C   0  0  0  0  0  0  0  0  0  0  0  0
    0.7145   -0.4125    0.0000 C   0  0  0  0  0  0  0  0  0  0  0  0
    0.7145   -1.2375    0.0000 C   0  0  0  0  0  0  0  0  0  0  0  0
    1.4289   -1.6500    0.0000 C   0  0  0  0  0  0  0  0  0  0  0  0
    1.4289   -2.4750    0.0000 N   0  0  0  0  0  0  0  0  0  0  0  0
    0.7145   -2.8875    0.0000 C   0  0  0  0  0  0  0  0  0  0  0  0
    0.0000   -2.4750    0.0000 C   0  0  0  0  0  0  0  0  0  0  0  0
    0.0000   -1.6500    0.0000 N   0  0  0  0  0  0  0  0  0  0  0  0
    2.1434   -2.8875    0.0000 C   0  0  0  0  0  0  0  0  0  0  0  0
    2.8579   -2.4750    0.0000 C   0  0  0  0  0  0  0  0  0  0  0  0
    3.5724   -2.8875    0.0000 C   0  0  0  0  0  0  0  0  0  0  0  0
    3.8545   -2.1123    0.0000 C   0  0  0  0  0  0  0  0  0  0  0  0
    4.3848   -3.0308    0.0000 C   0  0  0  0  0  0  0  0  0  0  0  0
    3.5724   -3.7125    0.0000 N   0  0  0  0  0  0  0  0  0  0  0  0
    2.8579   -4.1250    0.0000 C   0  0  0  0  0  0  0  0  0  0  0  0
    3.3882   -4.7570    0.0000 C   0  0  0  0  0  0  0  0  0  0  0  0
    2.3276   -4.7570    0.0000 C   0  0  0  0  0  0  0  0  0  0  0  0
    2.1434   -3.7125    0.0000 C   0  0  0  0  0  0  0  0  0  0  0  0
  1  2  1  0  0  0  0
  2  3  1  0  0  0  0
  3  4  1  0  0  0  0
  4  5  1  0  0  0  0
  5  6  1  0  0  0  0
  6  7  1  0  0  0  0
  7  8  1  0  0  0  0
  8  9  1  0  0  0  0
  9 10  1  0  0  0  0
  5 10  1  0  0  0  0
  7 11  1  0  0  0  0
 11 12  1  0  0  0  0
 12 13  1  0  0  0  0
 13 14  1  0  0  0  0
 13 15  1  0  0  0  0
 13 16  1  0  0  0  0
 16 17  1  0  0  0  0
 17 18  1  0  0  0  0
 17 19  1  0  0  0  0
 17 20  1  0  0  0  0
 11 20  1  0  0  0  0
M  END
> <ID>
CPD_1735

$$$$
CPD_1740
  Mrv1822 09091914012D          

 25 27  0  0  0  0            999 V2000
   -0.8815   -5.5925    0.0000 C   0  0  0  0  0  0  0  0  0  0  0  0
   -0.1670   -6.0050    0.0000 N   0  0  0  0  0  0  0  0  0  0  0  0
   -0.1670   -6.8300    0.0000 C   0  0  0  0  0  0  0  0  0  0  0  0
    0.5475   -5.5925    0.0000 C   0  0  0  0  0  0  0  0  0  0  0  0
    1.2619   -6.0050    0.0000 C   0  0  0  0  0  0  0  0  0  0  0  0
    1.9764   -5.5925    0.0000 O   0  0  0  0  0  0  0  0  0  0  0  0
    2.6909   -6.0050    0.0000 C   0  0  0  0  0  0  0  0  0  0  0  0
    3.4053   -5.5925    0.0000 C   0  0  0  0  0  0  0  0  0  0  0  0
    3.4053   -4.7675    0.0000 C   0  0  0  0  0  0  0  0  0  0  0  0
    4.1198   -4.3550    0.0000 N   0  0  0  0  0  0  0  0  0  0  0  0
    4.8343   -4.7675    0.0000 C   0  0  0  0  0  0  0  0  0  0  0  0
    4.9205   -5.5880    0.0000 N   0  0  0  0  0  0  0  0  0  0  0  0
    5.7275   -5.7595    0.0000 C   0  0  0  0  0  0  0  0  0  0  0  0
    6.1400   -5.0451    0.0000 C   0  0  0  0  0  0  0  0  0  0  0  0
    6.9650   -5.0451    0.0000 C   0  0  0  0  0  0  0  0  0  0  0  0
    7.3775   -5.7595    0.0000 C   0  0  0  0  0  0  0  0  0  0  0  0
    8.2025   -5.7595    0.0000 C   0  0  0  0  0  0  0  0  0  0  0  0
    6.9650   -6.4740    0.0000 C   0  0  0  0  0  0  0  0  0  0  0  0
    6.1400   -6.4740    0.0000 C   0  0  0  0  0  0  0  0  0  0  0  0
    5.5880   -4.4320    0.0000 N   0  0  0  0  0  0  0  0  0  0  0  0
    5.7595   -3.6250    0.0000 C   0  0  0  0  0  0  0  0  0  0  0  0
    4.1198   -6.0050    0.0000 C   0  0  0  0  0  0  0  0  0  0  0  0
    4.1198   -6.8300    0.0000 C   0  0  0  0  0  0  0  0  0  0  0  0
    3.4053   -7.2425    0.0000 C   0  0  0  0  0  0  0  0  0  0  0  0
    2.6909   -6.8300    0.0000 C   0  0  0  0  0  0  0  0  0  0  0  0
  1  2  1  0  0  0  0
  2  3  1  0  0  0  0
  2  4  1  0  0  0  0
  4  5  1  0  0  0  0
  5  6  1  0  0  0  0
  6  7  1  0  0  0  0
  7  8  2  0  0  0  0
  8  9  1  0  0  0  0
  9 10  1  0  0  0  0
 10 11  1  0  0  0  0
 11 12  2  0  0  0  0
 12 13  1  0  0  0  0
 13 14  2  0  0  0  0
 14 15  1  0  0  0  0
 15 16  2  0  0  0  0
 16 17  1  0  0  0  0
 16 18  1  0  0  0  0
 18 19  2  0  0  0  0
 13 19  1  0  0  0  0
 14 20  1  0  0  0  0
 11 20  1  0  0  0  0
 20 21  1  0  0  0  0
  8 22  1  0  0  0  0
 22 23  2  0  0  0  0
 23 24  1  0  0  0  0
 24 25  2  0  0  0  0
  7 25  1  0  0  0  0
M  END
> <ID>
CPD_1740

$$$$
CPD_1745
  Mrv1822 09091914012D          

 29 32  0  0  1  0            999 V2000
    0.5765   -2.2736    0.0000 H   0  0  0  0  0  0  0  0  0  0  0  0
    0.7601   -3.0779    0.0000 C   0  0  1  0  0  0  0  0  0  0  0  0
    0.1151   -3.5923    0.0000 C   0  0  0  0  0  0  0  0  0  0  0  0
    0.1151   -4.4173    0.0000 C   0  0  0  0  0  0  0  0  0  0  0  0
    0.7601   -4.9317    0.0000 C   0  0  2  0  0  0  0  0  0  0  0  0
    0.5765   -5.7360    0.0000 H   0  0  0  0  0  0  0  0  0  0  0  0
    1.5644   -4.7481    0.0000 C   0  0  0  0  0  0  0  0  0  0  0  0
    1.9224   -4.0048    0.0000 C   0  0  0  0  0  0  0  0  0  0  0  0
    1.5644   -3.2615    0.0000 C   0  0  0  0  0  0  0  0  0  0  0  0
    2.7474   -4.0048    0.0000 N   0  0  0  0  0  0  0  0  0  0  0  0
    3.1599   -4.7192    0.0000 C   0  0  0  0  0  0  0  0  0  0  0  0
    2.8243   -5.4729    0.0000 N   0  0  0  0  0  0  0  0  0  0  0  0
    3.4374   -6.0250    0.0000 C   0  0  0  0  0  0  0  0  0  0  0  0
    4.1519   -5.6125    0.0000 C   0  0  0  0  0  0  0  0  0  0  0  0
    4.8664   -6.0250    0.0000 C   0  0  0  0  0  0  0  0  0  0  0  0
    4.8664   -6.8500    0.0000 C   0  0  0  0  0  0  0  0  0  0  0  0
    5.5808   -7.2625    0.0000 C   0  0  0  0  0  0  0  0  0  0  0  0
    4.1519   -7.2625    0.0000 C   0  0  0  0  0  0  0  0  0  0  0  0
    3.4374   -6.8500    0.0000 C   0  0  0  0  0  0  0  0  0  0  0  0
    3.9804   -4.8055    0.0000 N   0  0  0  0  0  0  0  0  0  0  0  0
    4.5324   -4.1924    0.0000 C   0  0  0  0  0  0  0  0  0  0  0  0
    0.5284   -4.0048    0.0000 N   0  0  0  0  0  0  0  0  0  0  0  0
   -0.2966   -4.0048    0.0000 C   0  0  0  0  0  0  0  0  0  0  0  0
   -0.7091   -4.7192    0.0000 O   0  0  0  0  0  0  0  0  0  0  0  0
   -0.7091   -3.2903    0.0000 O   0  0  0  0  0  0  0  0  0  0  0  0
   -1.5341   -3.2903    0.0000 C   0  0  0  0  0  0  0  0  0  0  0  0
   -2.3591   -3.2903    0.0000 C   0  0  0  0  0  0  0  0  0  0  0  0
   -1.5341   -2.4653    0.0000 C   0  0  0  0  0  0  0  0  0  0  0  0
   -1.5341   -4.1153    0.0000 C   0  0  0  0  0  0  0  0  0  0  0  0
  2  1  1  6  0  0  0
  2  3  1  0  0  0  0
  3  4  1  0  0  0  0
  5  4  1  0  0  0  0
  5  6  1  6  0  0  0
  5  7  1  0  0  0  0
  7  8  1  0  0  0  0
  8  9  1  0  0  0  0
  2  9  1  0  0  0  0
  8 10  1  0  0  0  0
 10 11  1  0  0  0  0
 11 12  2  0  0  0  0
 12 13  1  0  0  0  0
 13 14  2  0  0  0  0
 14 15  1  0  0  0  0
 15 16  2  0  0  0  0
 16 17  1  0  0  0  0
 16 18  1  0  0  0  0
 18 19  2  0  0  0  0
 13 19  1  0  0  0  0
 14 20  1  0  0  0  0
 11 20  1  0  0  0  0
 20 21  1  0  0  0  0
  5 22  1  0  0  0  0
  2 22  1  0  0  0  0
 22 23  1  0  0  0  0
 23 24  2  0  0  0  0
 23 25  1  0  0  0  0
 25 26  1  0  0  0  0
 26 27  1  0  0  0  0
 26 28  1  0  0  0  0
 26 29  1  0  0  0  0
M  END
> <ID>
CPD_1745

$$$$
CPD_1750
  Mrv1822 09091914012D          

 19 20  0  0  0  0            999 V2000
   -1.4045   -6.7195    0.0000 C   0  0  0  0  0  0  0  0  0  0  0  0
   -0.6900   -6.3070    0.0000 C   0  0  0  0  0  0  0  0  0  0  0  0
    0.0244   -6.7195    0.0000 C   0  0  0  0  0  0  0  0  0  0  0  0
    0.7389   -6.3070    0.0000 C   0  0  0  0  0  0  0  0  0  0  0  0
    1.4534   -6.7195    0.0000 C   0  0  0  0  0  0  0  0  0  0  0  0
    2.1678   -6.3070    0.0000 C   0  0  0  0  0  0  0  0  0  0  0  0
    2.8823   -6.7195    0.0000 C   0  0  0  0  0  0  0  0  0  0  0  0
    3.5968   -6.3070    0.0000 N   0  0  0  0  0  0  0  0  0  0  0  0
    4.3113   -6.7195    0.0000 C   0  0  0  0  0  0  0  0  0  0  0  0
    4.3975   -7.5400    0.0000 N   0  0  0  0  0  0  0  0  0  0  0  0
    5.2045   -7.7115    0.0000 C   0  0  0  0  0  0  0  0  0  0  0  0
    5.6170   -6.9970    0.0000 C   0  0  0  0  0  0  0  0  0  0  0  0
    6.4420   -6.9970    0.0000 C   0  0  0  0  0  0  0  0  0  0  0  0
    6.8545   -7.7115    0.0000 C   0  0  0  0  0  0  0  0  0  0  0  0
    7.6795   -7.7115    0.0000 C   0  0  0  0  0  0  0  0  0  0  0  0
    6.4420   -8.4260    0.0000 C   0  0  0  0  0  0  0  0  0  0  0  0
    5.6170   -8.4260    0.0000 C   0  0  0  0  0  0  0  0  0  0  0  0
    5.0649   -6.3839    0.0000 N   0  0  0  0  0  0  0  0  0  0  0  0
    5.2365   -5.5770    0.0000 C   0  0  0  0  0  0  0  0  0  0  0  0
  1  2  1  0  0  0  0
  2  3  1  0  0  0  0
  3  4  1  0  0  0  0
  4  5  1  0  0  0  0
  5  6  1  0  0  0  0
  6  7  1  0  0  0  0
  7  8  1  0  0  0  0
  8  9  1  0  0  0  0
  9 10  2  0  0  0  0
 10 11  1  0  0  0  0
 11 12  2  0  0  0  0
 12 13  1  0  0  0  0
 13 14  2  0  0  0  0
 14 15  1  0  0  0  0
 14 16  1  0  0  0  0
 16 17  2  0  0  0  0
 11 17  1  0  0  0  0
 12 18  1  0  0  0  0
  9 18  1  0  0  0  0
 18 19  1  0  0  0  0
M  END
> <ID>
CPD_1750

$$$$
CPD_1755
  Mrv1822 09091914012D          

 28 30  0  0  1  0            999 V2000
   -0.3984    0.7541    0.0000 C   0  0  0  0  0  0  0  0  0  0  0  0
   -0.1435   -0.0305    0.0000 N   0  0  0  0  0  0  0  0  0  0  0  0
   -0.6284   -0.6979    0.0000 C   0  0  0  0  0  0  0  0  0  0  0  0
   -1.4534   -0.6979    0.0000 N   0  0  0  0  0  0  0  0  0  0  0  0
   -1.8659   -1.4124    0.0000 C   0  0  0  0  0  0  0  0  0  0  0  0
   -2.6909   -1.4124    0.0000 C   0  0  0  0  0  0  0  0  0  0  0  0
   -3.1034   -2.1269    0.0000 C   0  0  0  0  0  0  0  0  0  0  0  0
   -3.9284   -2.1269    0.0000 C   0  0  0  0  0  0  0  0  0  0  0  0
   -4.3409   -1.4124    0.0000 C   0  0  0  0  0  0  0  0  0  0  0  0
   -3.9284   -0.6979    0.0000 C   0  0  0  0  0  0  0  0  0  0  0  0
   -3.1034   -0.6979    0.0000 C   0  0  0  0  0  0  0  0  0  0  0  0
   -2.6909    0.0165    0.0000 O   0  0  0  0  0  0  0  0  0  0  0  0
   -4.3409   -2.8414    0.0000 C   0  0  1  0  0  0  0  0  0  0  0  0
   -3.9284   -3.5558    0.0000 O   0  0  0  0  0  0  0  0  0  0  0  0
   -5.1659   -2.8414    0.0000 C   0  0  0  0  0  0  0  0  0  0  0  0
   -5.5784   -3.5558    0.0000 N   0  0  0  0  0  0  0  0  0  0  0  0
   -6.4034   -3.5558    0.0000 C   0  0  0  0  0  0  0  0  0  0  0  0
   -7.2284   -3.5558    0.0000 C   0  0  0  0  0  0  0  0  0  0  0  0
   -6.4034   -4.3808    0.0000 C   0  0  0  0  0  0  0  0  0  0  0  0
   -6.4034   -2.7308    0.0000 C   0  0  0  0  0  0  0  0  0  0  0  0
   -0.1435   -1.3654    0.0000 N   0  0  0  0  0  0  0  0  0  0  0  0
    0.6411   -1.1104    0.0000 C   0  0  0  0  0  0  0  0  0  0  0  0
    0.6411   -0.2854    0.0000 C   0  0  0  0  0  0  0  0  0  0  0  0
    1.3556    0.1271    0.0000 C   0  0  0  0  0  0  0  0  0  0  0  0
    2.0701   -0.2854    0.0000 C   0  0  0  0  0  0  0  0  0  0  0  0
    2.7845    0.1271    0.0000 C   0  0  0  0  0  0  0  0  0  0  0  0
    2.0701   -1.1104    0.0000 C   0  0  0  0  0  0  0  0  0  0  0  0
    1.3556   -1.5229    0.0000 C   0  0  0  0  0  0  0  0  0  0  0  0
  1  2  1  0  0  0  0
  2  3  1  0  0  0  0
  3  4  1  0  0  0  0
  4  5  1  0  0  0  0
  5  6  1  0  0  0  0
  6  7  2  0  0  0  0
  7  8  1  0  0  0  0
  8  9  2  0  0  0  0
  9 10  1  0  0  0  0
 10 11  2  0  0  0  0
  6 11  1  0  0  0  0
 11 12  1  0  0  0  0
 13  8  1  0  0  0  0
 13 14  1  1  0  0  0
 13 15  1  0  0  0  0
 15 16  1  0  0  0  0
 16 17  1  0  0  0  0
 17 18  1  0  0  0  0
 17 19  1  0  0  0  0
 17 20  1  0  0  0  0
  3 21  2  0  0  0  0
 21 22  1  0  0  0  0
 22 23  2  0  0  0  0
  2 23  1  0  0  0  0
 23 24  1  0  0  0  0
 24 25  2  0  0  0  0
 25 26  1  0  0  0  0
 25 27  1  0  0  0  0
 27 28  2  0  0  0  0
 22 28  1  0  0  0  0
M  END
> <ID>
CPD_1755

$$$$
CPD_1760
  Mrv1822 09091914012D          

 24 26  0  0  0  0            999 V2000
    6.4933    4.4175    0.0000 C   0  0  0  0  0  0  0  0  0  0  0  0
    5.9790    3.7725    0.0000 N   0  0  0  0  0  0  0  0  0  0  0  0
    6.2804    3.0045    0.0000 C   0  0  0  0  0  0  0  0  0  0  0  0
    7.0961    2.8815    0.0000 C   0  0  0  0  0  0  0  0  0  0  0  0
    7.3976    2.1136    0.0000 C   0  0  0  0  0  0  0  0  0  0  0  0
    6.8832    1.4686    0.0000 C   0  0  0  0  0  0  0  0  0  0  0  0
    7.1846    0.7006    0.0000 Cl  0  0  0  0  0  0  0  0  0  0  0  0
    6.0674    1.5915    0.0000 C   0  0  0  0  0  0  0  0  0  0  0  0
    5.7660    2.3595    0.0000 C   0  0  0  0  0  0  0  0  0  0  0  0
    4.9502    2.4825    0.0000 C   0  0  0  0  0  0  0  0  0  0  0  0
    4.4358    1.8374    0.0000 N   0  0  0  0  0  0  0  0  0  0  0  0
    4.7938    1.0941    0.0000 C   0  0  0  0  0  0  0  0  0  0  0  0
    4.4358    0.3508    0.0000 C   0  0  0  0  0  0  0  0  0  0  0  0
    3.6315    0.1673    0.0000 O   0  0  0  0  0  0  0  0  0  0  0  0
    2.9865    0.6816    0.0000 C   0  0  0  0  0  0  0  0  0  0  0  0
    2.2720    0.2691    0.0000 C   0  0  0  0  0  0  0  0  0  0  0  0
    1.5575    0.6816    0.0000 C   0  0  0  0  0  0  0  0  0  0  0  0
    1.5575    1.5066    0.0000 C   0  0  0  0  0  0  0  0  0  0  0  0
    2.2720    1.9191    0.0000 C   0  0  0  0  0  0  0  0  0  0  0  0
    2.9865    1.5066    0.0000 C   0  0  0  0  0  0  0  0  0  0  0  0
    3.6315    2.0210    0.0000 C   0  0  0  0  0  0  0  0  0  0  0  0
    0.8431    1.9191    0.0000 C   0  0  0  0  0  0  0  0  0  0  0  0
    0.1286    1.5066    0.0000 C   0  0  0  0  0  0  0  0  0  0  0  0
    0.8431    2.7441    0.0000 O   0  0  0  0  0  0  0  0  0  0  0  0
  1  2  1  0  0  0  0
  2  3  1  0  0  0  0
  3  4  2  0  0  0  0
  4  5  1  0  0  0  0
  5  6  2  0  0  0  0
  6  7  1  0  0  0  0
  6  8  1  0  0  0  0
  8  9  2  0  0  0  0
  3  9  1  0  0  0  0
  9 10  1  0  0  0  0
 10 11  1  0  0  0  0
 11 12  1  0  0  0  0
 12 13  1  0  0  0  0
 13 14  1  0  0  0  0
 14 15  1  0  0  0  0
 15 16  2  0  0  0  0
 16 17  1  0  0  0  0
 17 18  2  0  0  0  0
 18 19  1  0  0  0  0
 19 20  2  0  0  0  0
 15 20  1  0  0  0  0
 20 21  1  0  0  0  0
 11 21  1  0  0  0  0
 18 22  1  0  0  0  0
 22 23  1  0  0  0  0
 22 24  1  0  0  0  0
M  END
> <ID>
CPD_1760

$$$$
CPD_1765
  Mrv1822 09091914012D          

 22 24  0  0  1  0            999 V2000
    6.8471    4.2850    0.0000 C   0  0  0  0  0  0  0  0  0  0  0  0
    6.2098    3.7611    0.0000 C   0  0  0  0  0  0  0  0  0  0  0  0
    6.3450    2.9472    0.0000 N   0  0  0  0  0  0  0  0  0  0  0  0
    7.0828    2.5782    0.0000 C   0  0  0  0  0  0  0  0  0  0  0  0
    6.9599    1.7624    0.0000 C   0  0  0  0  0  0  0  0  0  0  0  0
    6.1460    1.6272    0.0000 C   0  0  0  0  0  0  0  0  0  0  0  0
    5.7660    2.3595    0.0000 C   0  0  1  0  0  0  0  0  0  0  0  0
    4.9502    2.4825    0.0000 C   0  0  0  0  0  0  0  0  0  0  0  0
    4.4358    1.8374    0.0000 N   0  0  0  0  0  0  0  0  0  0  0  0
    4.7938    1.0941    0.0000 C   0  0  0  0  0  0  0  0  0  0  0  0
    4.4358    0.3508    0.0000 C   0  0  0  0  0  0  0  0  0  0  0  0
    3.6315    0.1673    0.0000 O   0  0  0  0  0  0  0  0  0  0  0  0
    2.9865    0.6816    0.0000 C   0  0  0  0  0  0  0  0  0  0  0  0
    2.2720    0.2691    0.0000 C   0  0  0  0  0  0  0  0  0  0  0  0
    1.5575    0.6816    0.0000 C   0  0  0  0  0  0  0  0  0  0  0  0
    1.5575    1.5066    0.0000 C   0  0  0  0  0  0  0  0  0  0  0  0
    2.2720    1.9191    0.0000 C   0  0  0  0  0  0  0  0  0  0  0  0
    2.9865    1.5066    0.0000 C   0  0  0  0  0  0  0  0  0  0  0  0
    3.6315    2.0210    0.0000 C   0  0  0  0  0  0  0  0  0  0  0  0
    0.8431    1.9191    0.0000 C   0  0  0  0  0  0  0  0  0  0  0  0
    0.1286    1.5066    0.0000 C   0  0  0  0  0  0  0  0  0  0  0  0
    0.8431    2.7441    0.0000 O   0  0  0  0  0  0  0  0  0  0  0  0
  1  2  1  0  0  0  0
  2  3  1  0  0  0  0
  3  4  1  0  0  0  0
  4  5  1  0  0  0  0
  5  6  1  0  0  0  0
  7  6  1  0  0  0  0
  7  3  1  0  0  0  0
  7  8  1  1  0  0  0
  8  9  1  0  0  0  0
  9 10  1  0  0  0  0
 10 11  1  0  0  0  0
 11 12  1  0  0  0  0
 12 13  1  0  0  0  0
 13 14  2  0  0  0  0
 14 15  1  0  0  0  0
 15 16  2  0  0  0  0
 16 17  1  0  0  0  0
 17 18  2  0  0  0  0
 13 18  1  0  0  0  0
 18 19  1  0  0  0  0
  9 19  1  0  0  0  0
 16 20  1  0  0  0  0
 20 21  1  0  0  0  0
 20 22  1  0  0  0  0
M  END
> <ID>
CPD_1765

$$$$
CPD_1770
  Mrv1822 09091914012D          

 33 36  0  0  0  0            999 V2000
   -0.9373   -1.5316    0.0000 C   0  0  0  0  0  0  0  0  0  0  0  0
   -0.2228   -1.9441    0.0000 C   0  0  0  0  0  0  0  0  0  0  0  0
   -0.2228   -2.7691    0.0000 O   0  0  0  0  0  0  0  0  0  0  0  0
    0.4917   -1.5316    0.0000 C   0  0  0  0  0  0  0  0  0  0  0  0
    0.4917   -0.7066    0.0000 C   0  0  0  0  0  0  0  0  0  0  0  0
    1.2062   -0.2941    0.0000 C   0  0  0  0  0  0  0  0  0  0  0  0
    1.9206   -0.7066    0.0000 C   0  0  0  0  0  0  0  0  0  0  0  0
    2.5656   -0.1923    0.0000 O   0  0  0  0  0  0  0  0  0  0  0  0
    3.3700   -0.3758    0.0000 C   0  0  0  0  0  0  0  0  0  0  0  0
    3.7279   -1.1191    0.0000 C   0  0  0  0  0  0  0  0  0  0  0  0
    3.3700   -1.8624    0.0000 N   0  0  0  0  0  0  0  0  0  0  0  0
    3.8843   -2.5075    0.0000 C   0  0  0  0  0  0  0  0  0  0  0  0
    4.7001   -2.3845    0.0000 C   0  0  0  0  0  0  0  0  0  0  0  0
    5.2145   -3.0295    0.0000 N   0  0  0  0  0  0  0  0  0  0  0  0
    6.0303   -2.9065    0.0000 C   0  0  0  0  0  0  0  0  0  0  0  0
    6.5447   -3.5516    0.0000 C   0  0  0  0  0  0  0  0  0  0  0  0
    6.2433   -4.3195    0.0000 N   0  0  0  0  0  0  0  0  0  0  0  0
    5.4275   -4.4425    0.0000 C   0  0  0  0  0  0  0  0  0  0  0  0
    4.9131   -3.7975    0.0000 C   0  0  0  0  0  0  0  0  0  0  0  0
    6.7576   -4.9645    0.0000 C   0  0  0  0  0  0  0  0  0  0  0  0
    7.5734   -4.8416    0.0000 C   0  0  0  0  0  0  0  0  0  0  0  0
    8.0878   -5.4866    0.0000 C   0  0  0  0  0  0  0  0  0  0  0  0
    7.7864   -6.2546    0.0000 C   0  0  0  0  0  0  0  0  0  0  0  0
    6.9706   -6.3775    0.0000 C   0  0  0  0  0  0  0  0  0  0  0  0
    6.4562   -5.7325    0.0000 C   0  0  0  0  0  0  0  0  0  0  0  0
    5.6404   -5.8555    0.0000 Cl  0  0  0  0  0  0  0  0  0  0  0  0
    8.3008   -6.8996    0.0000 S   0  0  0  0  0  0  0  0  0  0  0  0
    8.8151   -7.5446    0.0000 C   0  0  0  0  0  0  0  0  0  0  0  0
    7.6558   -7.4140    0.0000 O   0  0  0  0  0  0  0  0  0  0  0  0
    8.9458   -6.3852    0.0000 O   0  0  0  0  0  0  0  0  0  0  0  0
    2.5656   -2.0460    0.0000 C   0  0  0  0  0  0  0  0  0  0  0  0
    1.9206   -1.5316    0.0000 C   0  0  0  0  0  0  0  0  0  0  0  0
    1.2062   -1.9441    0.0000 C   0  0  0  0  0  0  0  0  0  0  0  0
  1  2  1  0  0  0  0
  2  3  1  0  0  0  0
  2  4  1  0  0  0  0
  4  5  2  0  0  0  0
  5  6  1  0  0  0  0
  6  7  2  0  0  0  0
  7  8  1  0  0  0  0
  8  9  1  0  0  0  0
  9 10  1  0  0  0  0
 10 11  1  0  0  0  0
 11 12  1  0  0  0  0
 12 13  1  0  0  0  0
 13 14  1  0  0  0  0
 14 15  1  0  0  0  0
 15 16  1  0  0  0  0
 16 17  1  0  0  0  0
 17 18  1  0  0  0  0
 18 19  1  0  0  0  0
 14 19  1  0  0  0  0
 17 20  1  0  0  0  0
 20 21  2  0  0  0  0
 21 22  1  0  0  0  0
 22 23  2  0  0  0  0
 23 24  1  0  0  0  0
 24 25  2  0  0  0  0
 20 25  1  0  0  0  0
 25 26  1  0  0  0  0
 23 27  1  0  0  0  0
 27 28  1  0  0  0  0
 27 29  2  0  0  0  0
 27 30  2  0  0  0  0
 11 31  1  0  0  0  0
 31 32  1  0  0  0  0
  7 32  1  0  0  0  0
 32 33  2  0  0  0  0
  4 33  1  0  0  0  0
M  END
> <ID>
CPD_1770

$$$$
CPD_1775
  Mrv1822 09091914012D          

 22 22  0  0  0  0            999 V2000
    2.9779    2.6345    0.0000 C   0  0  0  0  0  0  0  0  0  0  0  0
    3.5724    2.0625    0.0000 C   0  0  0  0  0  0  0  0  0  0  0  0
    4.3650    2.2913    0.0000 C   0  0  0  0  0  0  0  0  0  0  0  0
    4.9595    1.7193    0.0000 C   0  0  0  0  0  0  0  0  0  0  0  0
    5.7521    1.9481    0.0000 C   0  0  0  0  0  0  0  0  0  0  0  0
    6.3466    1.3761    0.0000 C   0  0  0  0  0  0  0  0  0  0  0  0
    7.1392    1.6049    0.0000 C   0  0  0  0  0  0  0  0  0  0  0  0
    7.7337    1.0328    0.0000 C   0  0  0  0  0  0  0  0  0  0  0  0
    8.5263    1.2617    0.0000 C   0  0  0  0  0  0  0  0  0  0  0  0
    8.7245    2.0625    0.0000 C   0  0  0  0  0  0  0  0  0  0  0  0
    9.5171    2.2913    0.0000 O   0  0  0  0  0  0  0  0  0  0  0  0
    8.1300    2.6345    0.0000 O   0  0  0  0  0  0  0  0  0  0  0  0
    7.5355    0.2320    0.0000 N   0  0  0  0  0  0  0  0  0  0  0  0
    6.7429    0.0032    0.0000 C   0  0  0  0  0  0  0  0  0  0  0  0
    6.5447   -0.7977    0.0000 C   0  0  0  0  0  0  0  0  0  0  0  0
    7.1392   -1.3697    0.0000 Cl  0  0  0  0  0  0  0  0  0  0  0  0
    5.7521   -1.0265    0.0000 C   0  0  0  0  0  0  0  0  0  0  0  0
    5.5539   -1.8273    0.0000 Cl  0  0  0  0  0  0  0  0  0  0  0  0
    5.1576   -0.4545    0.0000 C   0  0  0  0  0  0  0  0  0  0  0  0
    4.3650   -0.6833    0.0000 O   0  0  0  0  0  0  0  0  0  0  0  0
    5.3558    0.3464    0.0000 C   0  0  0  0  0  0  0  0  0  0  0  0
    6.1484    0.5752    0.0000 C   0  0  0  0  0  0  0  0  0  0  0  0
  1  2  1  0  0  0  0
  2  3  1  0  0  0  0
  3  4  1  0  0  0  0
  4  5  1  0  0  0  0
  5  6  1  0  0  0  0
  6  7  1  0  0  0  0
  7  8  1  0  0  0  0
  8  9  1  0  0  0  0
  9 10  1  0  0  0  0
 10 11  1  0  0  0  0
 10 12  2  0  0  0  0
  8 13  1  0  0  0  0
 13 14  1  0  0  0  0
 14 15  2  0  0  0  0
 15 16  1  0  0  0  0
 15 17  1  0  0  0  0
 17 18  1  0  0  0  0
 17 19  2  0  0  0  0
 19 20  1  0  0  0  0
 19 21  1  0  0  0  0
 21 22  2  0  0  0  0
 14 22  1  0  0  0  0
M  END
> <ID>
CPD_1775

$$$$
CPD_1780
  Mrv1822 09091914012D          

 21 22  0  0  0  0            999 V2000
    1.4289   -1.6500    0.0000 C   0  0  0  0  0  0  0  0  0  0  0  0
    1.4289   -2.4750    0.0000 C   0  0  0  0  0  0  0  0  0  0  0  0
    2.1434   -2.8875    0.0000 N   0  0  0  0  0  0  0  0  0  0  0  0
    2.1434   -3.7125    0.0000 C   0  0  0  0  0  0  0  0  0  0  0  0
    1.4289   -4.1250    0.0000 C   0  0  0  0  0  0  0  0  0  0  0  0
    1.4289   -4.9500    0.0000 C   0  0  0  0  0  0  0  0  0  0  0  0
    2.1434   -5.3625    0.0000 N   0  0  0  0  0  0  0  0  0  0  0  0
    2.1434   -6.1875    0.0000 C   0  0  0  0  0  0  0  0  0  0  0  0
    2.8579   -6.6000    0.0000 C   0  0  0  0  0  0  0  0  0  0  0  0
    3.5724   -6.1875    0.0000 Cl  0  0  0  0  0  0  0  0  0  0  0  0
    2.8579   -7.4250    0.0000 C   0  0  0  0  0  0  0  0  0  0  0  0
    3.5724   -7.8375    0.0000 Cl  0  0  0  0  0  0  0  0  0  0  0  0
    2.1434   -7.8375    0.0000 C   0  0  0  0  0  0  0  0  0  0  0  0
    2.1434   -8.6625    0.0000 O   0  0  0  0  0  0  0  0  0  0  0  0
    1.4289   -7.4250    0.0000 C   0  0  0  0  0  0  0  0  0  0  0  0
    1.4289   -6.6000    0.0000 C   0  0  0  0  0  0  0  0  0  0  0  0
    0.7145   -3.7125    0.0000 C   0  0  0  0  0  0  0  0  0  0  0  0
    0.0000   -4.1250    0.0000 C   0  0  0  0  0  0  0  0  0  0  0  0
   -0.7145   -3.7125    0.0000 O   0  0  0  0  0  0  0  0  0  0  0  0
    0.7145   -2.8875    0.0000 C   0  0  0  0  0  0  0  0  0  0  0  0
    0.0000   -2.4750    0.0000 O   0  0  0  0  0  0  0  0  0  0  0  0
  1  2  1  0  0  0  0
  2  3  2  0  0  0  0
  3  4  1  0  0  0  0
  4  5  2  0  0  0  0
  5  6  1  0  0  0  0
  6  7  1  0  0  0  0
  7  8  1  0  0  0  0
  8  9  2  0  0  0  0
  9 10  1  0  0  0  0
  9 11  1  0  0  0  0
 11 12  1  0  0  0  0
 11 13  2  0  0  0  0
 13 14  1  0  0  0  0
 13 15  1  0  0  0  0
 15 16  2  0  0  0  0
  8 16  1  0  0  0  0
  5 17  1  0  0  0  0
 17 18  1  0  0  0  0
 18 19  1  0  0  0  0
 17 20  2  0  0  0  0
  2 20  1  0  0  0  0
 20 21  1  0  0  0  0
M  END
> <ID>
CPD_1780

$$$$
CPD_1785
  Mrv1822 09091914012D          

 31 33  0  0  0  0            999 V2000
    2.5592    8.1639    0.0000 C   0  0  0  0  0  0  0  0  0  0  0  0
    3.3796    8.2501    0.0000 O   0  0  0  0  0  0  0  0  0  0  0  0
    3.8646    7.5827    0.0000 C   0  0  0  0  0  0  0  0  0  0  0  0
    4.6850    7.6689    0.0000 C   0  0  0  0  0  0  0  0  0  0  0  0
    5.1700    7.0015    0.0000 C   0  0  0  0  0  0  0  0  0  0  0  0
    4.8344    6.2478    0.0000 C   0  0  0  0  0  0  0  0  0  0  0  0
    4.0139    6.1616    0.0000 C   0  0  0  0  0  0  0  0  0  0  0  0
    3.5290    6.8290    0.0000 C   0  0  0  0  0  0  0  0  0  0  0  0
    5.3193    5.5804    0.0000 N   0  0  0  0  0  0  0  0  0  0  0  0
    6.1443    5.5804    0.0000 C   0  0  0  0  0  0  0  0  0  0  0  0
    6.6292    6.2478    0.0000 O   0  0  0  0  0  0  0  0  0  0  0  0
    6.3993    4.7958    0.0000 C   0  0  0  0  0  0  0  0  0  0  0  0
    5.7318    4.3108    0.0000 C   0  0  0  0  0  0  0  0  0  0  0  0
    5.7318    3.4858    0.0000 N   0  0  0  0  0  0  0  0  0  0  0  0
    5.0174    3.0733    0.0000 C   0  0  0  0  0  0  0  0  0  0  0  0
    5.0174    2.2483    0.0000 C   0  0  0  0  0  0  0  0  0  0  0  0
    4.3029    1.8358    0.0000 N   0  0  0  0  0  0  0  0  0  0  0  0
    4.3029    1.0108    0.0000 C   0  0  0  0  0  0  0  0  0  0  0  0
    3.5884    0.5983    0.0000 C   0  0  0  0  0  0  0  0  0  0  0  0
    3.5884   -0.2267    0.0000 O   0  0  0  0  0  0  0  0  0  0  0  0
    3.5884    2.2483    0.0000 C   0  0  0  0  0  0  0  0  0  0  0  0
    3.5884    3.0733    0.0000 C   0  0  0  0  0  0  0  0  0  0  0  0
    2.8739    3.4858    0.0000 O   0  0  0  0  0  0  0  0  0  0  0  0
    6.4463    3.0733    0.0000 C   0  0  0  0  0  0  0  0  0  0  0  0
    6.4463    2.2483    0.0000 C   0  0  0  0  0  0  0  0  0  0  0  0
    7.1137    1.7634    0.0000 C   0  0  0  0  0  0  0  0  0  0  0  0
    6.8588    0.9788    0.0000 C   0  0  0  0  0  0  0  0  0  0  0  0
    6.0338    0.9788    0.0000 C   0  0  0  0  0  0  0  0  0  0  0  0
    5.7789    1.7634    0.0000 O   0  0  0  0  0  0  0  0  0  0  0  0
    5.0644    4.7958    0.0000 C   0  0  0  0  0  0  0  0  0  0  0  0
    4.2798    4.5408    0.0000 O   0  0  0  0  0  0  0  0  0  0  0  0
  1  2  1  0  0  0  0
  2  3  1  0  0  0  0
  3  4  2  0  0  0  0
  4  5  1  0  0  0  0
  5  6  2  0  0  0  0
  6  7  1  0  0  0  0
  7  8  2  0  0  0  0
  3  8  1  0  0  0  0
  6  9  1  0  0  0  0
  9 10  1  0  0  0  0
 10 11  2  0  0  0  0
 10 12  1  0  0  0  0
 12 13  1  0  0  0  0
 13 14  1  0  0  0  0
 14 15  1  0  0  0  0
 15 16  1  0  0  0  0
 16 17  1  0  0  0  0
 17 18  1  0  0  0  0
 18 19  1  0  0  0  0
 19 20  1  0  0  0  0
 17 21  1  0  0  0  0
 21 22  1  0  0  0  0
 22 23  1  0  0  0  0
 14 24  1  0  0  0  0
 24 25  1  0  0  0  0
 25 26  2  0  0  0  0
 26 27  1  0  0  0  0
 27 28  2  0  0  0  0
 28 29  1  0  0  0  0
 25 29  1  0  0  0  0
 13 30  1  0  0  0  0
  9 30  1  0  0  0  0
 30 31  2  0  0  0  0
M  END
> <ID>
CPD_1785

$$$$
CPD_1790
  Mrv1822 09091914012D          

 29 31  0  0  0  0            999 V2000
   -2.1434   -0.1914    0.0000 H   0  0  0  0  0  0  0  0  0  0  0  0
   -1.7309    0.5230    0.0000 O   0  0  0  0  0  0  0  0  0  0  0  0
   -2.1434    1.2375    0.0000 C   0  0  0  0  0  0  0  0  0  0  0  0
   -2.5559    1.9520    0.0000 C   0  0  0  0  0  0  0  0  0  0  0  0
   -2.8579    0.8250    0.0000 C   0  0  0  0  0  0  0  0  0  0  0  0
   -2.9441    0.0045    0.0000 O   0  0  0  0  0  0  0  0  0  0  0  0
   -3.7511   -0.1670    0.0000 C   0  0  0  0  0  0  0  0  0  0  0  0
   -4.0866   -0.9207    0.0000 C   0  0  0  0  0  0  0  0  0  0  0  0
   -4.1636    0.5475    0.0000 C   0  0  0  0  0  0  0  0  0  0  0  0
   -3.6116    1.1606    0.0000 C   0  0  0  0  0  0  0  0  0  0  0  0
   -3.7831    1.9675    0.0000 O   0  0  0  0  0  0  0  0  0  0  0  0
   -1.4289    1.6500    0.0000 C   0  0  0  0  0  0  0  0  0  0  0  0
   -0.7145    1.2375    0.0000 C   0  0  0  0  0  0  0  0  0  0  0  0
   -0.0000    1.6500    0.0000 C   0  0  0  0  0  0  0  0  0  0  0  0
    0.0000    2.4750    0.0000 C   0  0  0  0  0  0  0  0  0  0  0  0
   -0.7145    2.8875    0.0000 O   0  0  0  0  0  0  0  0  0  0  0  0
   -1.4289    2.4750    0.0000 C   0  0  0  0  0  0  0  0  0  0  0  0
   -2.1434    2.8875    0.0000 O   0  0  0  0  0  0  0  0  0  0  0  0
    0.7145    2.8875    0.0000 C   0  0  0  0  0  0  0  0  0  0  0  0
    1.4289    2.4750    0.0000 C   0  0  0  0  0  0  0  0  0  0  0  0
    2.1434    2.8875    0.0000 O   0  0  0  0  0  0  0  0  0  0  0  0
    1.4289    1.6500    0.0000 C   0  0  0  0  0  0  0  0  0  0  0  0
    2.1434    1.2375    0.0000 C   0  0  0  0  0  0  0  0  0  0  0  0
    2.8579    1.6500    0.0000 C   0  0  0  0  0  0  0  0  0  0  0  0
    3.5724    1.2375    0.0000 C   0  0  0  0  0  0  0  0  0  0  0  0
    4.2868    1.6500    0.0000 C   0  0  0  0  0  0  0  0  0  0  0  0
    5.0013    1.2375    0.0000 C   0  0  0  0  0  0  0  0  0  0  0  0
    5.7158    1.6500    0.0000 C   0  0  0  0  0  0  0  0  0  0  0  0
    0.7145    1.2375    0.0000 C   0  0  0  0  0  0  0  0  0  0  0  0
  1  2  1  0  0  0  0
  2  3  1  0  0  0  0
  3  4  1  0  0  0  0
  3  5  1  0  0  0  0
  5  6  1  0  0  0  0
  6  7  1  0  0  0  0
  7  8  1  0  0  0  0
  7  9  2  0  0  0  0
  9 10  1  0  0  0  0
  5 10  1  0  0  0  0
 10 11  2  0  0  0  0
  3 12  1  0  0  0  0
 12 13  2  0  0  0  0
 13 14  1  0  0  0  0
 14 15  2  0  0  0  0
 15 16  1  0  0  0  0
 16 17  1  0  0  0  0
 12 17  1  0  0  0  0
 17 18  2  0  0  0  0
 15 19  1  0  0  0  0
 19 20  2  0  0  0  0
 20 21  1  0  0  0  0
 20 22  1  0  0  0  0
 22 23  1  0  0  0  0
 23 24  1  0  0  0  0
 24 25  1  0  0  0  0
 25 26  1  0  0  0  0
 26 27  1  0  0  0  0
 27 28  1  0  0  0  0
 22 29  2  0  0  0  0
 14 29  1  0  0  0  0
M  END
> <ID>
CPD_1790

$$$$
CPD_1795
  Mrv1822 09091914012D          

 33 36  0  0  0  0            999 V2000
    0.0000   -3.0789    0.0000 H   0  0  0  0  0  0  0  0  0  0  0  0
    0.4125   -2.3645    0.0000 O   0  0  0  0  0  0  0  0  0  0  0  0
    0.0000   -1.6500    0.0000 C   0  0  0  0  0  0  0  0  0  0  0  0
   -0.4125   -0.9355    0.0000 C   0  0  0  0  0  0  0  0  0  0  0  0
   -1.2330   -0.8493    0.0000 C   0  0  0  0  0  0  0  0  0  0  0  0
   -1.7850   -1.4624    0.0000 C   0  0  0  0  0  0  0  0  0  0  0  0
   -1.4045   -0.0423    0.0000 O   0  0  0  0  0  0  0  0  0  0  0  0
   -0.6900    0.3702    0.0000 C   0  0  0  0  0  0  0  0  0  0  0  0
   -0.0769   -0.1819    0.0000 C   0  0  0  0  0  0  0  0  0  0  0  0
    0.7300   -0.0103    0.0000 O   0  0  0  0  0  0  0  0  0  0  0  0
   -0.7145   -2.0625    0.0000 C   0  0  0  0  0  0  0  0  0  0  0  0
   -0.7145   -2.8875    0.0000 C   0  0  0  0  0  0  0  0  0  0  0  0
   -1.4289   -3.3000    0.0000 C   0  0  0  0  0  0  0  0  0  0  0  0
   -2.1434   -2.8875    0.0000 C   0  0  0  0  0  0  0  0  0  0  0  0
   -2.8579   -3.3000    0.0000 C   0  0  0  0  0  0  0  0  0  0  0  0
   -3.5724   -2.8875    0.0000 C   0  0  0  0  0  0  0  0  0  0  0  0
   -2.1434   -2.0625    0.0000 C   0  0  0  0  0  0  0  0  0  0  0  0
   -1.4289   -1.6500    0.0000 C   0  0  0  0  0  0  0  0  0  0  0  0
    0.7145   -1.2375    0.0000 C   0  0  0  0  0  0  0  0  0  0  0  0
    0.7145   -0.4125    0.0000 C   0  0  0  0  0  0  0  0  0  0  0  0
    1.4289    0.0000    0.0000 N   0  0  0  0  0  0  0  0  0  0  0  0
    2.1434   -0.4125    0.0000 C   0  0  0  0  0  0  0  0  0  0  0  0
    2.8579    0.0000    0.0000 C   0  0  0  0  0  0  0  0  0  0  0  0
    3.5724   -0.4125    0.0000 C   0  0  0  0  0  0  0  0  0  0  0  0
    4.2868   -0.0000    0.0000 O   0  0  0  0  0  0  0  0  0  0  0  0
    4.2868    0.8250    0.0000 C   0  0  0  0  0  0  0  0  0  0  0  0
    3.5724   -1.2375    0.0000 C   0  0  0  0  0  0  0  0  0  0  0  0
    4.2868   -1.6500    0.0000 O   0  0  0  0  0  0  0  0  0  0  0  0
    4.2868   -2.4750    0.0000 C   0  0  0  0  0  0  0  0  0  0  0  0
    2.8579   -1.6500    0.0000 C   0  0  0  0  0  0  0  0  0  0  0  0
    2.1434   -1.2375    0.0000 C   0  0  0  0  0  0  0  0  0  0  0  0
    1.4289   -1.6500    0.0000 C   0  0  0  0  0  0  0  0  0  0  0  0
    1.4289   -2.4750    0.0000 O   0  0  0  0  0  0  0  0  0  0  0  0
  1  2  1  0  0  0  0
  2  3  1  0  0  0  0
  3  4  1  0  0  0  0
  4  5  2  0  0  0  0
  5  6  1  0  0  0  0
  5  7  1  0  0  0  0
  7  8  1  0  0  0  0
  8  9  1  0  0  0  0
  4  9  1  0  0  0  0
  9 10  2  0  0  0  0
  3 11  1  0  0  0  0
 11 12  2  0  0  0  0
 12 13  1  0  0  0  0
 13 14  2  0  0  0  0
 14 15  1  0  0  0  0
 15 16  1  0  0  0  0
 14 17  1  0  0  0  0
 17 18  2  0  0  0  0
 11 18  1  0  0  0  0
  3 19  1  0  0  0  0
 19 20  2  0  0  0  0
 20 21  1  0  0  0  0
 21 22  1  0  0  0  0
 22 23  2  0  0  0  0
 23 24  1  0  0  0  0
 24 25  1  0  0  0  0
 25 26  1  0  0  0  0
 24 27  2  0  0  0  0
 27 28  1  0  0  0  0
 28 29  1  0  0  0  0
 27 30  1  0  0  0  0
 30 31  2  0  0  0  0
 22 31  1  0  0  0  0
 31 32  1  0  0  0  0
 19 32  1  0  0  0  0
 32 33  2  0  0  0  0
M  END
> <ID>
CPD_1795

$$$$
CPD_1800
  Mrv1822 09091914012D          

 33 35  0  0  0  0            999 V2000
   -0.0689    0.8438    0.0000 H   0  0  0  0  0  0  0  0  0  0  0  0
    0.4720    0.2209    0.0000 O   0  0  0  0  0  0  0  0  0  0  0  0
   -0.0800   -0.3922    0.0000 C   0  0  0  0  0  0  0  0  0  0  0  0
    0.7269   -0.2207    0.0000 C   0  0  0  0  0  0  0  0  0  0  0  0
    0.9819    0.5639    0.0000 C   0  0  0  0  0  0  0  0  0  0  0  0
    1.7889    0.7355    0.0000 C   0  0  0  0  0  0  0  0  0  0  0  0
    2.3409    0.1224    0.0000 C   0  0  0  0  0  0  0  0  0  0  0  0
    2.0860   -0.6622    0.0000 C   0  0  0  0  0  0  0  0  0  0  0  0
    1.2790   -0.8338    0.0000 C   0  0  0  0  0  0  0  0  0  0  0  0
   -0.6931    0.1598    0.0000 C   0  0  0  0  0  0  0  0  0  0  0  0
   -1.4777   -0.0951    0.0000 C   0  0  0  0  0  0  0  0  0  0  0  0
   -2.0908    0.4569    0.0000 C   0  0  0  0  0  0  0  0  0  0  0  0
   -1.9193    1.2639    0.0000 C   0  0  0  0  0  0  0  0  0  0  0  0
   -1.1347    1.5188    0.0000 C   0  0  0  0  0  0  0  0  0  0  0  0
   -0.5216    0.9668    0.0000 C   0  0  0  0  0  0  0  0  0  0  0  0
   -2.5324    1.8159    0.0000 N   0  0  0  0  0  0  0  0  0  0  0  0
   -2.3609    2.6229    0.0000 C   0  0  0  0  0  0  0  0  0  0  0  0
   -3.3170    1.5610    0.0000 C   0  0  0  0  0  0  0  0  0  0  0  0
   -0.6321   -1.0053    0.0000 C   0  0  0  0  0  0  0  0  0  0  0  0
   -1.1841   -0.3922    0.0000 C   0  0  0  0  0  0  0  0  0  0  0  0
    0.0354   -1.4902    0.0000 N   0  0  0  0  0  0  0  0  0  0  0  0
    0.8200   -1.2353    0.0000 C   0  0  0  0  0  0  0  0  0  0  0  0
    1.6405   -1.1490    0.0000 O   0  0  0  0  0  0  0  0  0  0  0  0
    1.4331   -1.7873    0.0000 O   0  0  0  0  0  0  0  0  0  0  0  0
    1.2616   -2.5943    0.0000 C   0  0  0  0  0  0  0  0  0  0  0  0
    1.0900   -3.4013    0.0000 C   0  0  0  0  0  0  0  0  0  0  0  0
    0.4546   -2.4228    0.0000 C   0  0  0  0  0  0  0  0  0  0  0  0
    2.0685   -2.7658    0.0000 C   0  0  0  0  0  0  0  0  0  0  0  0
   -0.2196   -2.2748    0.0000 C   0  0  0  0  0  0  0  0  0  0  0  0
    0.2654   -2.9423    0.0000 O   0  0  0  0  0  0  0  0  0  0  0  0
   -1.0446   -2.2748    0.0000 C   0  0  0  0  0  0  0  0  0  0  0  0
   -1.2995   -1.4902    0.0000 C   0  0  0  0  0  0  0  0  0  0  0  0
   -2.0841   -1.2353    0.0000 O   0  0  0  0  0  0  0  0  0  0  0  0
  1  2  1  0  0  0  0
  2  3  1  0  0  0  0
  3  4  1  0  0  0  0
  4  5  2  0  0  0  0
  5  6  1  0  0  0  0
  6  7  2  0  0  0  0
  7  8  1  0  0  0  0
  8  9  2  0  0  0  0
  4  9  1  0  0  0  0
  3 10  1  0  0  0  0
 10 11  2  0  0  0  0
 11 12  1  0  0  0  0
 12 13  2  0  0  0  0
 13 14  1  0  0  0  0
 14 15  2  0  0  0  0
 10 15  1  0  0  0  0
 13 16  1  0  0  0  0
 16 17  1  0  0  0  0
 16 18  1  0  0  0  0
  3 19  1  0  0  0  0
 19 20  1  0  0  0  0
 19 21  1  0  0  0  0
 21 22  1  0  0  0  0
 22 23  2  0  0  0  0
 22 24  1  0  0  0  0
 24 25  1  0  0  0  0
 25 26  1  0  0  0  0
 25 27  1  0  0  0  0
 25 28  1  0  0  0  0
 21 29  1  0  0  0  0
 29 30  2  0  0  0  0
 29 31  1  0  0  0  0
 31 32  1  0  0  0  0
 19 32  1  0  0  0  0
 32 33  2  0  0  0  0
M  END
> <ID>
CPD_1800

$$$$
CPD_1805
  Mrv1822 09091914012D          

 29 30  0  0  1  0            999 V2000
    1.9520   -1.9520    0.0000 H   0  0  0  0  0  0  0  0  0  0  0  0
    1.5395   -1.2375    0.0000 O   0  0  0  0  0  0  0  0  0  0  0  0
    0.7145   -1.2375    0.0000 C   0  0  0  0  0  0  0  0  0  0  0  0
   -0.1105   -1.2375    0.0000 C   0  0  0  0  0  0  0  0  0  0  0  0
    0.7145   -2.0625    0.0000 C   0  0  0  0  0  0  0  0  0  0  0  0
    1.3819   -2.5474    0.0000 C   0  0  0  0  0  0  0  0  0  0  0  0
    2.1665   -2.2925    0.0000 O   0  0  0  0  0  0  0  0  0  0  0  0
    1.1270   -3.3320    0.0000 C   0  0  2  0  0  0  0  0  0  0  0  0
    1.6119   -3.9995    0.0000 C   0  0  0  0  0  0  0  0  0  0  0  0
    0.3020   -3.3320    0.0000 N   0  0  0  0  0  0  0  0  0  0  0  0
   -0.1830   -3.9995    0.0000 C   0  0  0  0  0  0  0  0  0  0  0  0
   -1.0034   -3.9132    0.0000 O   0  0  0  0  0  0  0  0  0  0  0  0
    0.1526   -4.7532    0.0000 O   0  0  0  0  0  0  0  0  0  0  0  0
   -0.3323   -5.4206    0.0000 C   0  0  0  0  0  0  0  0  0  0  0  0
   -0.8172   -6.0880    0.0000 C   0  0  0  0  0  0  0  0  0  0  0  0
    0.3351   -5.9055    0.0000 C   0  0  0  0  0  0  0  0  0  0  0  0
   -0.9998   -4.9357    0.0000 C   0  0  0  0  0  0  0  0  0  0  0  0
    0.0470   -2.5474    0.0000 C   0  0  0  0  0  0  0  0  0  0  0  0
   -0.7376   -2.2925    0.0000 O   0  0  0  0  0  0  0  0  0  0  0  0
    0.7145   -0.4125    0.0000 C   0  0  0  0  0  0  0  0  0  0  0  0
    0.0000    0.0000    0.0000 C   0  0  0  0  0  0  0  0  0  0  0  0
    0.0000    0.8250    0.0000 C   0  0  0  0  0  0  0  0  0  0  0  0
    0.7145    1.2375    0.0000 C   0  0  0  0  0  0  0  0  0  0  0  0
    1.4289    0.8250    0.0000 C   0  0  0  0  0  0  0  0  0  0  0  0
    1.4289    0.0000    0.0000 C   0  0  0  0  0  0  0  0  0  0  0  0
    0.7145    2.0625    0.0000 C   0  0  0  0  0  0  0  0  0  0  0  0
    0.7145    2.8875    0.0000 F   0  0  0  0  0  0  0  0  0  0  0  0
    1.5395    2.0625    0.0000 F   0  0  0  0  0  0  0  0  0  0  0  0
   -0.1105    2.0625    0.0000 F   0  0  0  0  0  0  0  0  0  0  0  0
  1  2  1  0  0  0  0
  2  3  1  0  0  0  0
  3  4  1  0  0  0  0
  3  5  1  0  0  0  0
  5  6  1  0  0  0  0
  6  7  2  0  0  0  0
  8  6  1  0  0  0  0
  8  9  1  6  0  0  0
  8 10  1  0  0  0  0
 10 11  1  0  0  0  0
 11 12  2  0  0  0  0
 11 13  1  0  0  0  0
 13 14  1  0  0  0  0
 14 15  1  0  0  0  0
 14 16  1  0  0  0  0
 14 17  1  0  0  0  0
 10 18  1  0  0  0  0
  5 18  1  0  0  0  0
 18 19  2  0  0  0  0
  3 20  1  0  0  0  0
 20 21  2  0  0  0  0
 21 22  1  0  0  0  0
 22 23  2  0  0  0  0
 23 24  1  0  0  0  0
 24 25  2  0  0  0  0
 20 25  1  0  0  0  0
 23 26  1  0  0  0  0
 26 27  1  0  0  0  0
 26 28  1  0  0  0  0
 26 29  1  0  0  0  0
M  END
> <ID>
CPD_1805

$$$$
CPD_1810
  Mrv1822 09091914012D          

 25 26  0  0  0  0            999 V2000
    0.3952   -0.3562    0.0000 H   0  0  0  0  0  0  0  0  0  0  0  0
    0.2868   -1.1741    0.0000 O   0  0  0  0  0  0  0  0  0  0  0  0
    1.0938   -1.0026    0.0000 C   0  0  0  0  0  0  0  0  0  0  0  0
    1.3487   -0.2179    0.0000 C   0  0  0  0  0  0  0  0  0  0  0  0
    0.7967    0.3952    0.0000 C   0  0  0  0  0  0  0  0  0  0  0  0
   -0.0103    0.2236    0.0000 O   0  0  0  0  0  0  0  0  0  0  0  0
    1.0516    1.1798    0.0000 C   0  0  0  0  0  0  0  0  0  0  0  0
    1.8586    1.3513    0.0000 C   0  0  0  0  0  0  0  0  0  0  0  0
    2.4106    0.7382    0.0000 C   0  0  0  0  0  0  0  0  0  0  0  0
    2.1557   -0.0464    0.0000 C   0  0  0  0  0  0  0  0  0  0  0  0
    1.6458   -1.6157    0.0000 C   0  0  0  0  0  0  0  0  0  0  0  0
    2.1978   -1.0026    0.0000 C   0  0  0  0  0  0  0  0  0  0  0  0
    0.9784   -2.1006    0.0000 N   0  0  0  0  0  0  0  0  0  0  0  0
    0.1937   -1.8456    0.0000 C   0  0  0  0  0  0  0  0  0  0  0  0
    0.0222   -1.0387    0.0000 O   0  0  0  0  0  0  0  0  0  0  0  0
   -0.4193   -2.3977    0.0000 O   0  0  0  0  0  0  0  0  0  0  0  0
   -1.2040   -2.1427    0.0000 C   0  0  0  0  0  0  0  0  0  0  0  0
   -1.9886   -1.8878    0.0000 C   0  0  0  0  0  0  0  0  0  0  0  0
   -0.9490   -1.3581    0.0000 C   0  0  0  0  0  0  0  0  0  0  0  0
   -1.4589   -2.9274    0.0000 C   0  0  0  0  0  0  0  0  0  0  0  0
    1.2333   -2.8852    0.0000 C   0  0  0  0  0  0  0  0  0  0  0  0
    0.7484   -3.5526    0.0000 O   0  0  0  0  0  0  0  0  0  0  0  0
    2.0583   -2.8852    0.0000 C   0  0  0  0  0  0  0  0  0  0  0  0
    2.3132   -2.1006    0.0000 C   0  0  0  0  0  0  0  0  0  0  0  0
    3.0979   -1.8456    0.0000 O   0  0  0  0  0  0  0  0  0  0  0  0
  1  2  1  0  0  0  0
  2  3  1  0  0  0  0
  3  4  1  0  0  0  0
  4  5  2  0  0  0  0
  5  6  1  0  0  0  0
  5  7  1  0  0  0  0
  7  8  2  0  0  0  0
  8  9  1  0  0  0  0
  9 10  2  0  0  0  0
  4 10  1  0  0  0  0
  3 11  1  0  0  0  0
 11 12  1  0  0  0  0
 11 13  1  0  0  0  0
 13 14  1  0  0  0  0
 14 15  2  0  0  0  0
 14 16  1  0  0  0  0
 16 17  1  0  0  0  0
 17 18  1  0  0  0  0
 17 19  1  0  0  0  0
 17 20  1  0  0  0  0
 13 21  1  0  0  0  0
 21 22  2  0  0  0  0
 21 23  1  0  0  0  0
 23 24  1  0  0  0  0
 11 24  1  0  0  0  0
 24 25  2  0  0  0  0
M  END
> <ID>
CPD_1810

$$$$
CPD_1815
  Mrv1822 09091914012D          

 27 28  0  0  0  0            999 V2000
    1.7613   -7.0706    0.0000 H   0  0  0  0  0  0  0  0  0  0  0  0
    1.7613   -6.2456    0.0000 O   0  0  0  0  0  0  0  0  0  0  0  0
    2.4757   -5.8331    0.0000 C   0  0  0  0  0  0  0  0  0  0  0  0
    2.4757   -5.0081    0.0000 C   0  0  0  0  0  0  0  0  0  0  0  0
    1.7613   -4.5956    0.0000 N   0  0  0  0  0  0  0  0  0  0  0  0
    1.7613   -3.7706    0.0000 C   0  0  0  0  0  0  0  0  0  0  0  0
    1.0468   -3.3581    0.0000 C   0  0  0  0  0  0  0  0  0  0  0  0
    2.4757   -3.3581    0.0000 O   0  0  0  0  0  0  0  0  0  0  0  0
    1.0468   -5.0081    0.0000 C   0  0  0  0  0  0  0  0  0  0  0  0
    0.3323   -4.5956    0.0000 C   0  0  0  0  0  0  0  0  0  0  0  0
    1.0468   -5.8331    0.0000 O   0  0  0  0  0  0  0  0  0  0  0  0
    3.1902   -4.5956    0.0000 C   0  0  0  0  0  0  0  0  0  0  0  0
    3.1902   -3.7706    0.0000 C   0  0  0  0  0  0  0  0  0  0  0  0
    3.9047   -5.0081    0.0000 O   0  0  0  0  0  0  0  0  0  0  0  0
    3.1902   -6.2456    0.0000 C   0  0  0  0  0  0  0  0  0  0  0  0
    3.9439   -5.9100    0.0000 C   0  0  0  0  0  0  0  0  0  0  0  0
    4.4959   -6.5231    0.0000 C   0  0  0  0  0  0  0  0  0  0  0  0
    4.0834   -7.2376    0.0000 C   0  0  0  0  0  0  0  0  0  0  0  0
    3.2764   -7.0661    0.0000 O   0  0  0  0  0  0  0  0  0  0  0  0
    4.4190   -7.9913    0.0000 C   0  0  0  0  0  0  0  0  0  0  0  0
    5.2394   -8.0775    0.0000 C   0  0  0  0  0  0  0  0  0  0  0  0
    5.7244   -7.4101    0.0000 C   0  0  0  0  0  0  0  0  0  0  0  0
    5.5750   -8.8312    0.0000 C   0  0  0  0  0  0  0  0  0  0  0  0
    5.0901   -9.4986    0.0000 C   0  0  0  0  0  0  0  0  0  0  0  0
    5.4256  -10.2523    0.0000 Br  0  0  0  0  0  0  0  0  0  0  0  0
    4.2696   -9.4124    0.0000 C   0  0  0  0  0  0  0  0  0  0  0  0
    3.9340   -8.6587    0.0000 C   0  0  0  0  0  0  0  0  0  0  0  0
  1  2  1  0  0  0  0
  2  3  1  0  0  0  0
  3  4  1  0  0  0  0
  4  5  1  0  0  0  0
  5  6  1  0  0  0  0
  6  7  1  0  0  0  0
  6  8  2  0  0  0  0
  5  9  1  0  0  0  0
  9 10  1  0  0  0  0
  9 11  2  0  0  0  0
  4 12  1  0  0  0  0
 12 13  1  0  0  0  0
 12 14  2  0  0  0  0
  3 15  1  0  0  0  0
 15 16  2  0  0  0  0
 16 17  1  0  0  0  0
 17 18  2  0  0  0  0
 18 19  1  0  0  0  0
 15 19  1  0  0  0  0
 18 20  1  0  0  0  0
 20 21  2  0  0  0  0
 21 22  1  0  0  0  0
 21 23  1  0  0  0  0
 23 24  2  0  0  0  0
 24 25  1  0  0  0  0
 24 26  1  0  0  0  0
 26 27  2  0  0  0  0
 20 27  1  0  0  0  0
M  END
> <ID>
CPD_1815

$$$$
CPD_1820
  Mrv1822 09091914012D          

 29 31  0  0  0  0            999 V2000
    3.7638   -0.5230    0.0000 H   0  0  0  0  0  0  0  0  0  0  0  0
    4.1763   -1.2375    0.0000 O   0  0  0  0  0  0  0  0  0  0  0  0
    5.0013   -1.2375    0.0000 C   0  0  0  0  0  0  0  0  0  0  0  0
    5.8263   -1.2375    0.0000 C   0  0  0  0  0  0  0  0  0  0  0  0
    5.0013   -2.0625    0.0000 C   0  0  0  0  0  0  0  0  0  0  0  0
    5.7158   -2.4750    0.0000 N   0  0  0  0  0  0  0  0  0  0  0  0
    5.7158   -3.3000    0.0000 C   0  0  0  0  0  0  0  0  0  0  0  0
    6.4302   -3.7125    0.0000 C   0  0  0  0  0  0  0  0  0  0  0  0
    5.0013   -3.7125    0.0000 O   0  0  0  0  0  0  0  0  0  0  0  0
    6.4302   -2.0625    0.0000 C   0  0  0  0  0  0  0  0  0  0  0  0
    7.1447   -2.4750    0.0000 C   0  0  0  0  0  0  0  0  0  0  0  0
    6.4302   -1.2375    0.0000 O   0  0  0  0  0  0  0  0  0  0  0  0
    4.2868   -2.4750    0.0000 C   0  0  0  0  0  0  0  0  0  0  0  0
    4.2868   -3.3000    0.0000 C   0  0  0  0  0  0  0  0  0  0  0  0
    3.5724   -2.0625    0.0000 O   0  0  0  0  0  0  0  0  0  0  0  0
    5.0013   -0.4125    0.0000 C   0  0  0  0  0  0  0  0  0  0  0  0
    4.2868    0.0000    0.0000 C   0  0  0  0  0  0  0  0  0  0  0  0
    4.2868    0.8250    0.0000 C   0  0  0  0  0  0  0  0  0  0  0  0
    3.5724    1.2375    0.0000 C   0  0  0  0  0  0  0  0  0  0  0  0
    3.5724    2.0625    0.0000 C   0  0  0  0  0  0  0  0  0  0  0  0
    4.2868    2.4750    0.0000 C   0  0  0  0  0  0  0  0  0  0  0  0
    4.2868    3.3000    0.0000 C   0  0  0  0  0  0  0  0  0  0  0  0
    5.0013    3.7125    0.0000 C   0  0  0  0  0  0  0  0  0  0  0  0
    5.7158    3.3000    0.0000 C   0  0  0  0  0  0  0  0  0  0  0  0
    5.7158    2.4750    0.0000 C   0  0  0  0  0  0  0  0  0  0  0  0
    5.0013    2.0625    0.0000 C   0  0  0  0  0  0  0  0  0  0  0  0
    5.0013    1.2375    0.0000 C   0  0  0  0  0  0  0  0  0  0  0  0
    5.7158    0.8250    0.0000 C   0  0  0  0  0  0  0  0  0  0  0  0
    5.7158    0.0000    0.0000 C   0  0  0  0  0  0  0  0  0  0  0  0
  1  2  1  0  0  0  0
  2  3  1  0  0  0  0
  3  4  1  0  0  0  0
  3  5  1  0  0  0  0
  5  6  1  0  0  0  0
  6  7  1  0  0  0  0
  7  8  1  0  0  0  0
  7  9  2  0  0  0  0
  6 10  1  0  0  0  0
 10 11  1  0  0  0  0
 10 12  2  0  0  0  0
  5 13  1  0  0  0  0
 13 14  1  0  0  0  0
 13 15  2  0  0  0  0
  3 16  1  0  0  0  0
 16 17  2  0  0  0  0
 17 18  1  0  0  0  0
 18 19  2  0  0  0  0
 19 20  1  0  0  0  0
 20 21  2  0  0  0  0
 21 22  1  0  0  0  0
 22 23  2  0  0  0  0
 23 24  1  0  0  0  0
 24 25  2  0  0  0  0
 25 26  1  0  0  0  0
 21 26  1  0  0  0  0
 26 27  2  0  0  0  0
 18 27  1  0  0  0  0
 27 28  1  0  0  0  0
 28 29  2  0  0  0  0
 16 29  1  0  0  0  0
M  END
> <ID>
CPD_1820

$$$$
CPD_1825
  Mrv1822 09091914012D          

 39 43  0  0  0  0            999 V2000
    4.3981    1.7930    0.0000 H   0  0  0  0  0  0  0  0  0  0  0  0
    3.5747    1.7413    0.0000 O   0  0  0  0  0  0  0  0  0  0  0  0
    3.3912    0.9370    0.0000 C   0  0  0  0  0  0  0  0  0  0  0  0
    2.6479    1.2950    0.0000 C   0  0  0  0  0  0  0  0  0  0  0  0
    2.5862    2.1177    0.0000 C   0  0  0  0  0  0  0  0  0  0  0  0
    3.2679    2.5824    0.0000 O   0  0  0  0  0  0  0  0  0  0  0  0
    1.8429    2.4756    0.0000 C   0  0  0  0  0  0  0  0  0  0  0  0
    1.1613    2.0109    0.0000 C   0  0  0  0  0  0  0  0  0  0  0  0
    0.4180    2.3688    0.0000 C   0  0  0  0  0  0  0  0  0  0  0  0
    0.3563    3.1915    0.0000 C   0  0  0  0  0  0  0  0  0  0  0  0
    1.0380    3.6563    0.0000 C   0  0  0  0  0  0  0  0  0  0  0  0
    0.9763    4.4789    0.0000 N   0  0  0  0  0  0  0  0  0  0  0  0
    0.2330    4.8369    0.0000 C   0  0  0  0  0  0  0  0  0  0  0  0
   -0.4486    4.3722    0.0000 O   0  0  0  0  0  0  0  0  0  0  0  0
    0.1714    5.6596    0.0000 C   0  0  0  0  0  0  0  0  0  0  0  0
   -0.5719    6.0175    0.0000 C   0  0  0  0  0  0  0  0  0  0  0  0
   -1.2536    5.5528    0.0000 F   0  0  0  0  0  0  0  0  0  0  0  0
   -0.6336    6.8402    0.0000 C   0  0  0  0  0  0  0  0  0  0  0  0
    0.0481    7.3050    0.0000 C   0  0  0  0  0  0  0  0  0  0  0  0
    0.7914    6.9470    0.0000 C   0  0  0  0  0  0  0  0  0  0  0  0
    0.8530    6.1243    0.0000 C   0  0  0  0  0  0  0  0  0  0  0  0
   -0.0136    8.1277    0.0000 C   0  0  0  0  0  0  0  0  0  0  0  0
   -0.0752    8.9504    0.0000 N   0  0  0  0  0  0  0  0  0  0  0  0
    1.7813    3.2983    0.0000 C   0  0  0  0  0  0  0  0  0  0  0  0
    4.2162    0.9370    0.0000 C   0  0  0  0  0  0  0  0  0  0  0  0
    4.7305    0.2920    0.0000 C   0  0  0  0  0  0  0  0  0  0  0  0
    4.5470   -0.5123    0.0000 C   0  0  0  0  0  0  0  0  0  0  0  0
    3.8037   -0.8703    0.0000 O   0  0  0  0  0  0  0  0  0  0  0  0
    3.0604   -0.5123    0.0000 C   0  0  0  0  0  0  0  0  0  0  0  0
    2.4556   -1.0735    0.0000 C   0  0  0  0  0  0  0  0  0  0  0  0
    2.6392   -1.8778    0.0000 C   0  0  0  0  0  0  0  0  0  0  0  0
    1.6673   -0.8303    0.0000 C   0  0  0  0  0  0  0  0  0  0  0  0
    1.4837   -0.0260    0.0000 C   0  0  0  0  0  0  0  0  0  0  0  0
    2.0884    0.5352    0.0000 C   0  0  0  0  0  0  0  0  0  0  0  0
    2.8768    0.2920    0.0000 C   0  0  0  0  0  0  0  0  0  0  0  0
    5.1517   -1.0735    0.0000 C   0  0  0  0  0  0  0  0  0  0  0  0
    5.9401   -0.8303    0.0000 C   0  0  0  0  0  0  0  0  0  0  0  0
    6.1237   -0.0260    0.0000 C   0  0  0  0  0  0  0  0  0  0  0  0
    5.5189    0.5352    0.0000 C   0  0  0  0  0  0  0  0  0  0  0  0
  1  2  1  0  0  0  0
  2  3  1  0  0  0  0
  3  4  1  0  0  0  0
  4  5  1  0  0  0  0
  5  6  2  0  0  0  0
  5  7  1  0  0  0  0
  7  8  2  0  0  0  0
  8  9  1  0  0  0  0
  9 10  2  0  0  0  0
 10 11  1  0  0  0  0
 11 12  1  0  0  0  0
 12 13  1  0  0  0  0
 13 14  2  0  0  0  0
 13 15  1  0  0  0  0
 15 16  2  0  0  0  0
 16 17  1  0  0  0  0
 16 18  1  0  0  0  0
 18 19  2  0  0  0  0
 19 20  1  0  0  0  0
 20 21  2  0  0  0  0
 15 21  1  0  0  0  0
 19 22  1  0  0  0  0
 22 23  3  0  0  0  0
 11 24  2  0  0  0  0
  7 24  1  0  0  0  0
  3 25  1  0  0  0  0
 25 26  1  0  0  0  0
 26 27  2  0  0  0  0
 27 28  1  0  0  0  0
 28 29  1  0  0  0  0
 29 30  2  0  0  0  0
 30 31  1  0  0  0  0
 30 32  1  0  0  0  0
 32 33  2  0  0  0  0
 33 34  1  0  0  0  0
 34 35  2  0  0  0  0
  3 35  1  0  0  0  0
 29 35  1  0  0  0  0
 27 36  1  0  0  0  0
 36 37  2  0  0  0  0
 37 38  1  0  0  0  0
 38 39  2  0  0  0  0
 26 39  1  0  0  0  0
M  END
> <ID>
CPD_1825

$$$$
CPD_1830
  Mrv1822 09091914012D          

 35 38  0  0  0  0            999 V2000
    2.1434    6.7661    0.0000 H   0  0  0  0  0  0  0  0  0  0  0  0
    1.4289    7.1786    0.0000 O   0  0  0  0  0  0  0  0  0  0  0  0
    0.7145    6.7661    0.0000 C   0  0  0  0  0  0  0  0  0  0  0  0
   -0.0000    7.1786    0.0000 C   0  0  0  0  0  0  0  0  0  0  0  0
   -0.0000    8.0036    0.0000 C   0  0  0  0  0  0  0  0  0  0  0  0
    0.7145    8.4161    0.0000 O   0  0  0  0  0  0  0  0  0  0  0  0
   -0.7145    8.4161    0.0000 C   0  0  0  0  0  0  0  0  0  0  0  0
   -1.4289    8.0036    0.0000 C   0  0  0  0  0  0  0  0  0  0  0  0
   -2.1434    8.4161    0.0000 C   0  0  0  0  0  0  0  0  0  0  0  0
   -2.1434    9.2411    0.0000 C   0  0  0  0  0  0  0  0  0  0  0  0
   -1.4289    9.6536    0.0000 C   0  0  0  0  0  0  0  0  0  0  0  0
   -1.4289   10.4786    0.0000 N   0  0  0  0  0  0  0  0  0  0  0  0
   -2.1434   10.8911    0.0000 C   0  0  0  0  0  0  0  0  0  0  0  0
   -2.8579   10.4786    0.0000 O   0  0  0  0  0  0  0  0  0  0  0  0
   -2.1434   11.7161    0.0000 C   0  0  0  0  0  0  0  0  0  0  0  0
   -2.8579   12.1286    0.0000 C   0  0  0  0  0  0  0  0  0  0  0  0
   -3.5724   11.7161    0.0000 F   0  0  0  0  0  0  0  0  0  0  0  0
   -2.8579   12.9536    0.0000 C   0  0  0  0  0  0  0  0  0  0  0  0
   -2.1434   13.3661    0.0000 C   0  0  0  0  0  0  0  0  0  0  0  0
   -1.4289   12.9536    0.0000 C   0  0  0  0  0  0  0  0  0  0  0  0
   -1.4289   12.1286    0.0000 C   0  0  0  0  0  0  0  0  0  0  0  0
   -2.1434   14.1911    0.0000 C   0  0  0  0  0  0  0  0  0  0  0  0
   -2.1434   15.0161    0.0000 N   0  0  0  0  0  0  0  0  0  0  0  0
   -0.7145    9.2411    0.0000 C   0  0  0  0  0  0  0  0  0  0  0  0
    0.7145    5.9411    0.0000 C   0  0  0  0  0  0  0  0  0  0  0  0
    1.4289    5.5286    0.0000 C   0  0  0  0  0  0  0  0  0  0  0  0
    1.4289    4.7036    0.0000 C   0  0  0  0  0  0  0  0  0  0  0  0
    0.7145    4.2911    0.0000 C   0  0  0  0  0  0  0  0  0  0  0  0
    0.0000    4.7036    0.0000 C   0  0  0  0  0  0  0  0  0  0  0  0
   -0.0000    5.5286    0.0000 C   0  0  0  0  0  0  0  0  0  0  0  0
    0.7145    3.4661    0.0000 C   0  0  0  0  0  0  0  0  0  0  0  0
    1.3819    2.9812    0.0000 N   0  0  0  0  0  0  0  0  0  0  0  0
    1.1270    2.1965    0.0000 O   0  0  0  0  0  0  0  0  0  0  0  0
    0.3020    2.1965    0.0000 C   0  0  0  0  0  0  0  0  0  0  0  0
    0.0470    2.9812    0.0000 N   0  0  0  0  0  0  0  0  0  0  0  0
  1  2  1  0  0  0  0
  2  3  1  0  0  0  0
  3  4  1  0  0  0  0
  4  5  1  0  0  0  0
  5  6  2  0  0  0  0
  5  7  1  0  0  0  0
  7  8  2  0  0  0  0
  8  9  1  0  0  0  0
  9 10  2  0  0  0  0
 10 11  1  0  0  0  0
 11 12  1  0  0  0  0
 12 13  1  0  0  0  0
 13 14  2  0  0  0  0
 13 15  1  0  0  0  0
 15 16  2  0  0  0  0
 16 17  1  0  0  0  0
 16 18  1  0  0  0  0
 18 19  2  0  0  0  0
 19 20  1  0  0  0  0
 20 21  2  0  0  0  0
 15 21  1  0  0  0  0
 19 22  1  0  0  0  0
 22 23  3  0  0  0  0
 11 24  2  0  0  0  0
  7 24  1  0  0  0  0
  3 25  1  0  0  0  0
 25 26  2  0  0  0  0
 26 27  1  0  0  0  0
 27 28  2  0  0  0  0
 28 29  1  0  0  0  0
 29 30  2  0  0  0  0
 25 30  1  0  0  0  0
 28 31  1  0  0  0  0
 31 32  2  0  0  0  0
 32 33  1  0  0  0  0
 33 34  1  0  0  0  0
 34 35  2  0  0  0  0
 31 35  1  0  0  0  0
M  END
> <ID>
CPD_1830

$$$$
CPD_1835
  Mrv1822 09091914012D          

 41 44  0  0  0  0            999 V2000
    3.4914    0.1105    0.0000 H   0  0  0  0  0  0  0  0  0  0  0  0
    3.4914    0.9355    0.0000 O   0  0  0  0  0  0  0  0  0  0  0  0
    4.3164    0.9355    0.0000 C   0  0  0  0  0  0  0  0  0  0  0  0
    4.3164    0.1105    0.0000 C   0  0  0  0  0  0  0  0  0  0  0  0
    3.6020   -0.3020    0.0000 C   0  0  0  0  0  0  0  0  0  0  0  0
    3.6020   -1.1270    0.0000 N   0  0  0  0  0  0  0  0  0  0  0  0
    4.3164   -1.5395    0.0000 C   0  0  0  0  0  0  0  0  0  0  0  0
    4.3164   -2.3645    0.0000 C   0  0  0  0  0  0  0  0  0  0  0  0
    3.6020   -2.7770    0.0000 O   0  0  0  0  0  0  0  0  0  0  0  0
    2.8875   -2.3645    0.0000 C   0  0  0  0  0  0  0  0  0  0  0  0
    2.8875   -1.5395    0.0000 C   0  0  0  0  0  0  0  0  0  0  0  0
    2.8875    0.1105    0.0000 C   0  0  0  0  0  0  0  0  0  0  0  0
    2.1730   -0.3020    0.0000 O   0  0  0  0  0  0  0  0  0  0  0  0
    2.8875    0.9355    0.0000 O   0  0  0  0  0  0  0  0  0  0  0  0
    4.3164    1.7605    0.0000 C   0  0  0  0  0  0  0  0  0  0  0  0
    3.6020    2.1730    0.0000 C   0  0  0  0  0  0  0  0  0  0  0  0
    2.8875    1.7605    0.0000 O   0  0  0  0  0  0  0  0  0  0  0  0
    3.6020    2.9980    0.0000 C   0  0  0  0  0  0  0  0  0  0  0  0
    2.8875    3.4105    0.0000 C   0  0  0  0  0  0  0  0  0  0  0  0
    2.8875    4.2355    0.0000 C   0  0  0  0  0  0  0  0  0  0  0  0
    3.6020    4.6480    0.0000 C   0  0  0  0  0  0  0  0  0  0  0  0
    4.3164    4.2355    0.0000 C   0  0  0  0  0  0  0  0  0  0  0  0
    5.0309    4.6480    0.0000 N   0  0  0  0  0  0  0  0  0  0  0  0
    5.0309    5.4730    0.0000 C   0  0  0  0  0  0  0  0  0  0  0  0
    4.3164    5.8855    0.0000 O   0  0  0  0  0  0  0  0  0  0  0  0
    5.7454    5.8855    0.0000 C   0  0  0  0  0  0  0  0  0  0  0  0
    5.7454    6.7105    0.0000 C   0  0  0  0  0  0  0  0  0  0  0  0
    5.0309    7.1230    0.0000 F   0  0  0  0  0  0  0  0  0  0  0  0
    6.4599    7.1230    0.0000 C   0  0  0  0  0  0  0  0  0  0  0  0
    7.1743    6.7105    0.0000 C   0  0  0  0  0  0  0  0  0  0  0  0
    7.1743    5.8855    0.0000 C   0  0  0  0  0  0  0  0  0  0  0  0
    6.4599    5.4730    0.0000 C   0  0  0  0  0  0  0  0  0  0  0  0
    7.8888    7.1230    0.0000 C   0  0  0  0  0  0  0  0  0  0  0  0
    8.6033    7.5355    0.0000 N   0  0  0  0  0  0  0  0  0  0  0  0
    4.3164    3.4105    0.0000 C   0  0  0  0  0  0  0  0  0  0  0  0
    5.1414    0.9355    0.0000 C   0  0  0  0  0  0  0  0  0  0  0  0
    5.5539    1.6500    0.0000 C   0  0  0  0  0  0  0  0  0  0  0  0
    6.3789    1.6500    0.0000 C   0  0  0  0  0  0  0  0  0  0  0  0
    6.7914    0.9355    0.0000 C   0  0  0  0  0  0  0  0  0  0  0  0
    6.3789    0.2211    0.0000 C   0  0  0  0  0  0  0  0  0  0  0  0
    5.5539    0.2211    0.0000 C   0  0  0  0  0  0  0  0  0  0  0  0
  1  2  1  0  0  0  0
  2  3  1  0  0  0  0
  3  4  1  0  0  0  0
  4  5  1  0  0  0  0
  5  6  1  0  0  0  0
  6  7  1  0  0  0  0
  7  8  1  0  0  0  0
  8  9  1  0  0  0  0
  9 10  1  0  0  0  0
 10 11  1  0  0  0  0
  6 11  1  0  0  0  0
  5 12  1  0  0  0  0
 12 13  1  0  0  0  0
 12 14  2  0  0  0  0
  3 15  1  0  0  0  0
 15 16  1  0  0  0  0
 16 17  2  0  0  0  0
 16 18  1  0  0  0  0
 18 19  2  0  0  0  0
 19 20  1  0  0  0  0
 20 21  2  0  0  0  0
 21 22  1  0  0  0  0
 22 23  1  0  0  0  0
 23 24  1  0  0  0  0
 24 25  2  0  0  0  0
 24 26  1  0  0  0  0
 26 27  2  0  0  0  0
 27 28  1  0  0  0  0
 27 29  1  0  0  0  0
 29 30  2  0  0  0  0
 30 31  1  0  0  0  0
 31 32  2  0  0  0  0
 26 32  1  0  0  0  0
 30 33  1  0  0  0  0
 33 34  3  0  0  0  0
 22 35  2  0  0  0  0
 18 35  1  0  0  0  0
  3 36  1  0  0  0  0
 36 37  2  0  0  0  0
 37 38  1  0  0  0  0
 38 39  2  0  0  0  0
 39 40  1  0  0  0  0
 40 41  2  0  0  0  0
 36 41  1  0  0  0  0
M  END
> <ID>
CPD_1835

$$$$
CPD_1840
  Mrv1822 09091914012D          

 35 37  0  0  0  0            999 V2000
   -0.7969   -3.9115    0.0000 H   0  0  0  0  0  0  0  0  0  0  0  0
    0.0000   -4.1250    0.0000 O   0  0  0  0  0  0  0  0  0  0  0  0
    0.7145   -3.7125    0.0000 C   0  0  0  0  0  0  0  0  0  0  0  0
    0.7145   -2.8875    0.0000 C   0  0  0  0  0  0  0  0  0  0  0  0
    0.0000   -2.4750    0.0000 C   0  0  0  0  0  0  0  0  0  0  0  0
    0.0000   -1.6500    0.0000 O   0  0  0  0  0  0  0  0  0  0  0  0
   -0.7145   -2.8875    0.0000 O   0  0  0  0  0  0  0  0  0  0  0  0
   -1.4289   -2.4750    0.0000 C   0  0  0  0  0  0  0  0  0  0  0  0
    1.4289   -2.4750    0.0000 C   0  0  0  0  0  0  0  0  0  0  0  0
    2.2494   -2.3888    0.0000 O   0  0  0  0  0  0  0  0  0  0  0  0
    1.4289   -1.6500    0.0000 C   0  0  0  0  0  0  0  0  0  0  0  0
    0.7145   -1.2375    0.0000 C   0  0  0  0  0  0  0  0  0  0  0  0
    0.7145   -0.4125    0.0000 N   0  0  0  0  0  0  0  0  0  0  0  0
    1.4289    0.0000    0.0000 C   0  0  0  0  0  0  0  0  0  0  0  0
    2.1434   -0.4125    0.0000 N   0  0  0  0  0  0  0  0  0  0  0  0
    2.1434   -1.2375    0.0000 C   0  0  0  0  0  0  0  0  0  0  0  0
    1.4289    0.8250    0.0000 N   0  0  0  0  0  0  0  0  0  0  0  0
    0.7145    1.2375    0.0000 C   0  0  0  0  0  0  0  0  0  0  0  0
    0.7145    2.0625    0.0000 C   0  0  0  0  0  0  0  0  0  0  0  0
    1.4289    2.4750    0.0000 C   0  0  0  0  0  0  0  0  0  0  0  0
    2.1434    2.0625    0.0000 C   0  0  0  0  0  0  0  0  0  0  0  0
    2.1434    1.2375    0.0000 C   0  0  0  0  0  0  0  0  0  0  0  0
    1.4289   -4.1250    0.0000 C   0  0  0  0  0  0  0  0  0  0  0  0
    2.1434   -3.7125    0.0000 C   0  0  0  0  0  0  0  0  0  0  0  0
    2.1434   -2.8875    0.0000 O   0  0  0  0  0  0  0  0  0  0  0  0
    2.8579   -2.4750    0.0000 C   0  0  0  0  0  0  0  0  0  0  0  0
    2.8579   -4.1250    0.0000 C   0  0  0  0  0  0  0  0  0  0  0  0
    2.8579   -4.9500    0.0000 C   0  0  0  0  0  0  0  0  0  0  0  0
    2.1434   -5.3625    0.0000 C   0  0  0  0  0  0  0  0  0  0  0  0
    2.1434   -6.1875    0.0000 F   0  0  0  0  0  0  0  0  0  0  0  0
    1.4289   -4.9500    0.0000 C   0  0  0  0  0  0  0  0  0  0  0  0
    0.7145   -5.3625    0.0000 C   0  0  0  0  0  0  0  0  0  0  0  0
    0.0000   -5.7750    0.0000 F   0  0  0  0  0  0  0  0  0  0  0  0
    0.3020   -4.6480    0.0000 F   0  0  0  0  0  0  0  0  0  0  0  0
    1.1270   -6.0770    0.0000 F   0  0  0  0  0  0  0  0  0  0  0  0
  1  2  1  0  0  0  0
  2  3  1  0  0  0  0
  3  4  1  0  0  0  0
  4  5  1  0  0  0  0
  5  6  2  0  0  0  0
  5  7  1  0  0  0  0
  7  8  1  0  0  0  0
  4  9  1  0  0  0  0
  9 10  2  0  0  0  0
  9 11  1  0  0  0  0
 11 12  2  0  0  0  0
 12 13  1  0  0  0  0
 13 14  2  0  0  0  0
 14 15  1  0  0  0  0
 15 16  2  0  0  0  0
 11 16  1  0  0  0  0
 14 17  1  0  0  0  0
 17 18  1  0  0  0  0
 18 19  1  0  0  0  0
 19 20  1  0  0  0  0
 20 21  1  0  0  0  0
 21 22  1  0  0  0  0
 17 22  1  0  0  0  0
  3 23  1  0  0  0  0
 23 24  2  0  0  0  0
 24 25  1  0  0  0  0
 25 26  1  0  0  0  0
 24 27  1  0  0  0  0
 27 28  2  0  0  0  0
 28 29  1  0  0  0  0
 29 30  1  0  0  0  0
 29 31  2  0  0  0  0
 23 31  1  0  0  0  0
 31 32  1  0  0  0  0
 32 33  1  0  0  0  0
 32 34  1  0  0  0  0
 32 35  1  0  0  0  0
M  END
> <ID>
CPD_1840

$$$$
CPD_1845
  Mrv1822 09091914012D          

 28 31  0  0  0  0            999 V2000
    2.7770   -1.7309    0.0000 H   0  0  0  0  0  0  0  0  0  0  0  0
    2.3645   -1.0164    0.0000 O   0  0  0  0  0  0  0  0  0  0  0  0
    1.5395   -1.0164    0.0000 C   0  0  0  0  0  0  0  0  0  0  0  0
    1.1270   -0.3020    0.0000 C   0  0  0  0  0  0  0  0  0  0  0  0
    0.3020   -0.3020    0.0000 C   0  0  0  0  0  0  0  0  0  0  0  0
   -0.1105   -1.0164    0.0000 O   0  0  0  0  0  0  0  0  0  0  0  0
   -0.1105    0.4125    0.0000 C   0  0  0  0  0  0  0  0  0  0  0  0
    0.3020    1.1270    0.0000 C   0  0  0  0  0  0  0  0  0  0  0  0
    1.1270    1.1270    0.0000 O   0  0  0  0  0  0  0  0  0  0  0  0
    1.5395    0.4125    0.0000 C   0  0  0  0  0  0  0  0  0  0  0  0
    1.9520    1.1270    0.0000 C   0  0  0  0  0  0  0  0  0  0  0  0
    2.7770    1.1270    0.0000 C   0  0  0  0  0  0  0  0  0  0  0  0
    3.1895    0.4125    0.0000 O   0  0  0  0  0  0  0  0  0  0  0  0
    2.7770   -0.3020    0.0000 C   0  0  0  0  0  0  0  0  0  0  0  0
    1.9520   -0.3020    0.0000 C   0  0  0  0  0  0  0  0  0  0  0  0
    1.1270   -1.7309    0.0000 C   0  0  0  0  0  0  0  0  0  0  0  0
    1.4625   -2.4846    0.0000 N   0  0  0  0  0  0  0  0  0  0  0  0
    0.8494   -3.0366    0.0000 C   0  0  0  0  0  0  0  0  0  0  0  0
    0.1350   -2.6241    0.0000 C   0  0  0  0  0  0  0  0  0  0  0  0
    0.3065   -1.8171    0.0000 S   0  0  0  0  0  0  0  0  0  0  0  0
    0.9357   -3.8571    0.0000 C   0  0  0  0  0  0  0  0  0  0  0  0
    1.6893   -4.1927    0.0000 C   0  0  0  0  0  0  0  0  0  0  0  0
    1.7756   -5.0131    0.0000 C   0  0  0  0  0  0  0  0  0  0  0  0
    1.1081   -5.4981    0.0000 C   0  0  0  0  0  0  0  0  0  0  0  0
    1.1944   -6.3185    0.0000 C   0  0  0  0  0  0  0  0  0  0  0  0
    1.9481   -6.6541    0.0000 C   0  0  0  0  0  0  0  0  0  0  0  0
    0.3545   -5.1625    0.0000 C   0  0  0  0  0  0  0  0  0  0  0  0
    0.2682   -4.3420    0.0000 C   0  0  0  0  0  0  0  0  0  0  0  0
  1  2  1  0  0  0  0
  2  3  1  0  0  0  0
  3  4  1  0  0  0  0
  4  5  1  0  0  0  0
  5  6  2  0  0  0  0
  5  7  1  0  0  0  0
  7  8  1  0  0  0  0
  8  9  1  0  0  0  0
  9 10  1  0  0  0  0
  4 10  1  0  0  0  0
 10 11  1  0  0  0  0
 11 12  1  0  0  0  0
 12 13  1  0  0  0  0
 13 14  1  0  0  0  0
 14 15  1  0  0  0  0
 10 15  1  0  0  0  0
  3 16  1  0  0  0  0
 16 17  2  0  0  0  0
 17 18  1  0  0  0  0
 18 19  2  0  0  0  0
 19 20  1  0  0  0  0
 16 20  1  0  0  0  0
 18 21  1  0  0  0  0
 21 22  2  0  0  0  0
 22 23  1  0  0  0  0
 23 24  2  0  0  0  0
 24 25  1  0  0  0  0
 25 26  1  0  0  0  0
 24 27  1  0  0  0  0
 27 28  2  0  0  0  0
 21 28  1  0  0  0  0
M  END
> <ID>
CPD_1845

$$$$
CPD_1850
  Mrv1822 09091914012D          

 25 28  0  0  0  0            999 V2000
    1.0705   -0.7632    0.0000 H   0  0  0  0  0  0  0  0  0  0  0  0
    0.3636   -0.3379    0.0000 O   0  0  0  0  0  0  0  0  0  0  0  0
    0.0280   -1.0916    0.0000 C   0  0  0  0  0  0  0  0  0  0  0  0
   -0.6865   -0.6791    0.0000 C   0  0  0  0  0  0  0  0  0  0  0  0
   -1.4009   -1.0916    0.0000 C   0  0  0  0  0  0  0  0  0  0  0  0
   -1.4009   -1.9166    0.0000 O   0  0  0  0  0  0  0  0  0  0  0  0
   -2.1154   -0.6791    0.0000 C   0  0  0  0  0  0  0  0  0  0  0  0
   -2.1154    0.1459    0.0000 C   0  0  0  0  0  0  0  0  0  0  0  0
   -1.4009    0.5584    0.0000 O   0  0  0  0  0  0  0  0  0  0  0  0
   -0.6865    0.1459    0.0000 C   0  0  0  0  0  0  0  0  0  0  0  0
   -0.6865    0.9709    0.0000 C   0  0  0  0  0  0  0  0  0  0  0  0
    0.0280    1.3834    0.0000 C   0  0  0  0  0  0  0  0  0  0  0  0
    0.7425    0.9709    0.0000 O   0  0  0  0  0  0  0  0  0  0  0  0
    0.7425    0.1459    0.0000 C   0  0  0  0  0  0  0  0  0  0  0  0
    0.0280   -0.2666    0.0000 C   0  0  0  0  0  0  0  0  0  0  0  0
    0.8126   -1.3465    0.0000 C   0  0  0  0  0  0  0  0  0  0  0  0
    0.8126   -2.1715    0.0000 C   0  0  0  0  0  0  0  0  0  0  0  0
    0.0280   -2.4265    0.0000 O   0  0  0  0  0  0  0  0  0  0  0  0
   -0.4569   -1.7590    0.0000 C   0  0  0  0  0  0  0  0  0  0  0  0
   -1.1757   -2.1640    0.0000 C   0  0  0  0  0  0  0  0  0  0  0  0
   -0.8619   -2.4778    0.0000 C   0  0  0  0  0  0  0  0  0  0  0  0
    1.5271   -2.5840    0.0000 C   0  0  0  0  0  0  0  0  0  0  0  0
    2.2416   -2.1715    0.0000 C   0  0  0  0  0  0  0  0  0  0  0  0
    2.2416   -1.3465    0.0000 C   0  0  0  0  0  0  0  0  0  0  0  0
    1.5271   -0.9340    0.0000 C   0  0  0  0  0  0  0  0  0  0  0  0
  1  2  1  0  0  0  0
  2  3  1  0  0  0  0
  3  4  1  0  0  0  0
  4  5  1  0  0  0  0
  5  6  2  0  0  0  0
  5  7  1  0  0  0  0
  7  8  1  0  0  0  0
  8  9  1  0  0  0  0
  9 10  1  0  0  0  0
  4 10  1  0  0  0  0
 10 11  1  0  0  0  0
 11 12  1  0  0  0  0
 12 13  1  0  0  0  0
 13 14  1  0  0  0  0
 14 15  1  0  0  0  0
 10 15  1  0  0  0  0
  3 16  1  0  0  0  0
 16 17  2  0  0  0  0
 17 18  1  0  0  0  0
 18 19  1  0  0  0  0
  3 19  1  0  0  0  0
 19 20  1  0  0  0  0
 19 21  1  0  0  0  0
 17 22  1  0  0  0  0
 22 23  2  0  0  0  0
 23 24  1  0  0  0  0
 24 25  2  0  0  0  0
 16 25  1  0  0  0  0
M  END
> <ID>
CPD_1850

$$$$
CPD_1855
  Mrv1822 09091914012D          

 39 43  0  0  0  0            999 V2000
    1.7527    2.3280    0.0000 H   0  0  0  0  0  0  0  0  0  0  0  0
    2.5645    2.4750    0.0000 O   0  0  0  0  0  0  0  0  0  0  0  0
    3.2789    2.0625    0.0000 C   0  0  0  0  0  0  0  0  0  0  0  0
    3.9934    2.4750    0.0000 C   0  0  0  0  0  0  0  0  0  0  0  0
    4.7079    2.0625    0.0000 C   0  0  0  0  0  0  0  0  0  0  0  0
    4.7079    1.2375    0.0000 O   0  0  0  0  0  0  0  0  0  0  0  0
    5.5048    2.3925    0.0000 C   0  0  0  0  0  0  0  0  0  0  0  0
    5.4223    3.3000    0.0000 C   0  0  0  0  0  0  0  0  0  0  0  0
    6.1368    3.7125    0.0000 C   0  0  0  0  0  0  0  0  0  0  0  0
    6.8513    3.3000    0.0000 C   0  0  0  0  0  0  0  0  0  0  0  0
    6.8513    2.4750    0.0000 C   0  0  0  0  0  0  0  0  0  0  0  0
    6.1368    2.0625    0.0000 N   0  0  0  0  0  0  0  0  0  0  0  0
    3.9934    3.3000    0.0000 C   0  0  0  0  0  0  0  0  0  0  0  0
    3.1729    3.2138    0.0000 O   0  0  0  0  0  0  0  0  0  0  0  0
    4.8139    3.2138    0.0000 C   0  0  0  0  0  0  0  0  0  0  0  0
    5.2264    2.4993    0.0000 O   0  0  0  0  0  0  0  0  0  0  0  0
    5.1494    3.9674    0.0000 N   0  0  0  0  0  0  0  0  0  0  0  0
    5.9564    4.1390    0.0000 C   0  0  0  0  0  0  0  0  0  0  0  0
    6.2113    4.9236    0.0000 C   0  0  0  0  0  0  0  0  0  0  0  0
    7.0183    5.0951    0.0000 C   0  0  0  0  0  0  0  0  0  0  0  0
    7.2733    5.8797    0.0000 C   0  0  0  0  0  0  0  0  0  0  0  0
    7.5282    6.6644    0.0000 N   0  0  0  0  0  0  0  0  0  0  0  0
    4.5363    4.5195    0.0000 C   0  0  0  0  0  0  0  0  0  0  0  0
    3.8219    4.1070    0.0000 C   0  0  0  0  0  0  0  0  0  0  0  0
    3.1074    4.5195    0.0000 C   0  0  0  0  0  0  0  0  0  0  0  0
    3.1074    5.3445    0.0000 C   0  0  0  0  0  0  0  0  0  0  0  0
    3.8219    5.7570    0.0000 C   0  0  0  0  0  0  0  0  0  0  0  0
    4.5363    5.3445    0.0000 C   0  0  0  0  0  0  0  0  0  0  0  0
    3.2789    1.2375    0.0000 C   0  0  0  0  0  0  0  0  0  0  0  0
    3.9934    0.8250    0.0000 C   0  0  0  0  0  0  0  0  0  0  0  0
    3.9934    0.0000    0.0000 C   0  0  0  0  0  0  0  0  0  0  0  0
    3.2789   -0.4125    0.0000 C   0  0  0  0  0  0  0  0  0  0  0  0
    2.5645    0.0000    0.0000 C   0  0  0  0  0  0  0  0  0  0  0  0
    2.5645    0.8250    0.0000 C   0  0  0  0  0  0  0  0  0  0  0  0
    1.7798    1.0799    0.0000 N   0  0  0  0  0  0  0  0  0  0  0  0
    1.2949    0.4125    0.0000 C   0  0  0  0  0  0  0  0  0  0  0  0
    0.4699    0.4125    0.0000 C   0  0  0  0  0  0  0  0  0  0  0  0
    1.7798   -0.2549    0.0000 C   0  0  0  0  0  0  0  0  0  0  0  0
    1.5249   -1.0396    0.0000 C   0  0  0  0  0  0  0  0  0  0  0  0
  1  2  1  0  0  0  0
  2  3  1  0  0  0  0
  3  4  1  0  0  0  0
  4  5  1  0  0  0  0
  5  6  2  0  0  0  0
  5  7  1  0  0  0  0
  7  8  2  0  0  0  0
  8  9  1  0  0  0  0
  9 10  2  0  0  0  0
 10 11  1  0  0  0  0
 11 12  2  0  0  0  0
  7 12  1  0  0  0  0
  4 13  1  0  0  0  0
 13 14  1  0  0  0  0
 13 15  1  0  0  0  0
 15 16  2  0  0  0  0
 15 17  1  0  0  0  0
 17 18  1  0  0  0  0
 18 19  1  0  0  0  0
 19 20  1  0  0  0  0
 20 21  1  0  0  0  0
 21 22  3  0  0  0  0
 17 23  1  0  0  0  0
 23 24  2  0  0  0  0
 13 24  1  0  0  0  0
 24 25  1  0  0  0  0
 25 26  2  0  0  0  0
 26 27  1  0  0  0  0
 27 28  2  0  0  0  0
 23 28  1  0  0  0  0
  3 29  1  0  0  0  0
 29 30  2  0  0  0  0
 30 31  1  0  0  0  0
 31 32  2  0  0  0  0
 32 33  1  0  0  0  0
 33 34  2  0  0  0  0
 29 34  1  0  0  0  0
 34 35  1  0  0  0  0
 35 36  1  0  0  0  0
 36 37  1  0  0  0  0
 36 38  2  0  0  0  0
 33 38  1  0  0  0  0
 38 39  1  0  0  0  0
M  END
> <ID>
CPD_1855

$$$$
CPD_1860
  Mrv1822 09091914012D          

 36 38  0  0  0  0            999 V2000
   -2.0083   -0.0224    0.0000 H   0  0  0  0  0  0  0  0  0  0  0  0
   -1.8712    0.7912    0.0000 O   0  0  0  0  0  0  0  0  0  0  0  0
   -2.6962    0.7912    0.0000 C   0  0  0  0  0  0  0  0  0  0  0  0
   -3.5212    0.7912    0.0000 C   0  0  0  0  0  0  0  0  0  0  0  0
   -2.6962   -0.0338    0.0000 C   0  0  0  0  0  0  0  0  0  0  0  0
   -3.4107   -0.4463    0.0000 S   0  0  0  0  0  0  0  0  0  0  0  0
   -3.4107   -1.2713    0.0000 C   0  0  0  0  0  0  0  0  0  0  0  0
   -2.7433   -1.7562    0.0000 N   0  0  0  0  0  0  0  0  0  0  0  0
   -2.9982   -2.5409    0.0000 N   0  0  0  0  0  0  0  0  0  0  0  0
   -3.8232   -2.5409    0.0000 C   0  0  0  0  0  0  0  0  0  0  0  0
   -4.0781   -1.7562    0.0000 N   0  0  0  0  0  0  0  0  0  0  0  0
   -1.9817   -0.4463    0.0000 C   0  0  0  0  0  0  0  0  0  0  0  0
   -1.9817   -1.2713    0.0000 C   0  0  0  0  0  0  0  0  0  0  0  0
   -1.2673   -0.0338    0.0000 O   0  0  0  0  0  0  0  0  0  0  0  0
   -2.6962    1.6162    0.0000 C   0  0  0  0  0  0  0  0  0  0  0  0
   -3.5087    1.4729    0.0000 C   0  0  0  0  0  0  0  0  0  0  0  0
   -4.0390    2.1049    0.0000 N   0  0  0  0  0  0  0  0  0  0  0  0
   -3.7568    2.8801    0.0000 C   0  0  0  0  0  0  0  0  0  0  0  0
   -2.9444    3.0234    0.0000 C   0  0  0  0  0  0  0  0  0  0  0  0
   -2.4141    2.3914    0.0000 C   0  0  0  0  0  0  0  0  0  0  0  0
   -1.6016    2.5347    0.0000 O   0  0  0  0  0  0  0  0  0  0  0  0
   -4.8515    1.9616    0.0000 S   0  0  0  0  0  0  0  0  0  0  0  0
   -4.9947    2.7741    0.0000 O   0  0  0  0  0  0  0  0  0  0  0  0
   -4.7082    1.1492    0.0000 O   0  0  0  0  0  0  0  0  0  0  0  0
   -5.6639    1.8184    0.0000 C   0  0  0  0  0  0  0  0  0  0  0  0
   -5.9461    1.0431    0.0000 C   0  0  0  0  0  0  0  0  0  0  0  0
   -6.7586    0.8999    0.0000 C   0  0  0  0  0  0  0  0  0  0  0  0
   -7.2889    1.5319    0.0000 C   0  0  0  0  0  0  0  0  0  0  0  0
   -8.1013    1.3886    0.0000 C   0  0  0  0  0  0  0  0  0  0  0  0
   -7.0067    2.3071    0.0000 C   0  0  0  0  0  0  0  0  0  0  0  0
   -6.1942    2.4504    0.0000 C   0  0  0  0  0  0  0  0  0  0  0  0
   -1.8838    1.4729    0.0000 C   0  0  0  0  0  0  0  0  0  0  0  0
   -1.6016    0.6977    0.0000 O   0  0  0  0  0  0  0  0  0  0  0  0
   -1.3535    2.1049    0.0000 O   0  0  0  0  0  0  0  0  0  0  0  0
   -0.5410    1.9616    0.0000 C   0  0  0  0  0  0  0  0  0  0  0  0
   -0.2588    1.1864    0.0000 C   0  0  0  0  0  0  0  0  0  0  0  0
  1  2  1  0  0  0  0
  2  3  1  0  0  0  0
  3  4  1  0  0  0  0
  3  5  1  0  0  0  0
  5  6  1  0  0  0  0
  6  7  1  0  0  0  0
  7  8  2  0  0  0  0
  8  9  1  0  0  0  0
  9 10  2  0  0  0  0
 10 11  1  0  0  0  0
  7 11  1  0  0  0  0
  5 12  1  0  0  0  0
 12 13  1  0  0  0  0
 12 14  2  0  0  0  0
  3 15  1  0  0  0  0
 15 16  1  0  0  0  0
 16 17  1  0  0  0  0
 17 18  1  0  0  0  0
 18 19  1  0  0  0  0
 19 20  1  0  0  0  0
 15 20  1  0  0  0  0
 20 21  2  0  0  0  0
 17 22  1  0  0  0  0
 22 23  2  0  0  0  0
 22 24  2  0  0  0  0
 22 25  1  0  0  0  0
 25 26  2  0  0  0  0
 26 27  1  0  0  0  0
 27 28  2  0  0  0  0
 28 29  1  0  0  0  0
 28 30  1  0  0  0  0
 30 31  2  0  0  0  0
 25 31  1  0  0  0  0
 15 32  1  0  0  0  0
 32 33  2  0  0  0  0
 32 34  1  0  0  0  0
 34 35  1  0  0  0  0
 35 36  1  0  0  0  0
M  END
> <ID>
CPD_1860

$$$$
CPD_1865
  Mrv1822 09091914012D          

 27 30  0  0  0  0            999 V2000
    0.1896    0.1116    0.0000 H   0  0  0  0  0  0  0  0  0  0  0  0
    0.6039    0.8250    0.0000 O   0  0  0  0  0  0  0  0  0  0  0  0
    1.4289    0.8250    0.0000 C   0  0  0  0  0  0  0  0  0  0  0  0
    2.2539    0.8250    0.0000 C   0  0  0  0  0  0  0  0  0  0  0  0
    1.4289    1.6500    0.0000 C   0  0  0  0  0  0  0  0  0  0  0  0
    2.0964    2.1349    0.0000 C   0  0  0  0  0  0  0  0  0  0  0  0
    2.8810    1.8800    0.0000 O   0  0  0  0  0  0  0  0  0  0  0  0
    1.8414    2.9195    0.0000 C   0  0  0  0  0  0  0  0  0  0  0  0
    1.0164    2.9195    0.0000 C   0  0  0  0  0  0  0  0  0  0  0  0
    0.6039    3.6340    0.0000 C   0  0  0  0  0  0  0  0  0  0  0  0
    1.0164    4.3485    0.0000 C   0  0  0  0  0  0  0  0  0  0  0  0
    1.8414    4.3485    0.0000 C   0  0  0  0  0  0  0  0  0  0  0  0
    2.2539    5.0630    0.0000 C   0  0  0  0  0  0  0  0  0  0  0  0
    2.2539    3.6340    0.0000 C   0  0  0  0  0  0  0  0  0  0  0  0
    0.7615    2.1349    0.0000 C   0  0  0  0  0  0  0  0  0  0  0  0
   -0.0472    2.2980    0.0000 C   0  0  0  0  0  0  0  0  0  0  0  0
    0.2031    1.5276    0.0000 C   0  0  0  0  0  0  0  0  0  0  0  0
    1.4289    0.0000    0.0000 C   0  0  0  0  0  0  0  0  0  0  0  0
    2.1434   -0.4125    0.0000 C   0  0  0  0  0  0  0  0  0  0  0  0
    2.8579    0.0000    0.0000 C   0  0  0  0  0  0  0  0  0  0  0  0
    3.5724   -0.4125    0.0000 C   0  0  0  0  0  0  0  0  0  0  0  0
    3.5724   -1.2375    0.0000 C   0  0  0  0  0  0  0  0  0  0  0  0
    2.8579   -1.6500    0.0000 C   0  0  0  0  0  0  0  0  0  0  0  0
    2.1434   -1.2375    0.0000 C   0  0  0  0  0  0  0  0  0  0  0  0
    1.4289   -1.6500    0.0000 C   0  0  0  0  0  0  0  0  0  0  0  0
    0.7145   -1.2375    0.0000 C   0  0  0  0  0  0  0  0  0  0  0  0
    0.7145   -0.4125    0.0000 C   0  0  0  0  0  0  0  0  0  0  0  0
  1  2  1  0  0  0  0
  2  3  1  0  0  0  0
  3  4  1  0  0  0  0
  3  5  1  0  0  0  0
  5  6  1  0  0  0  0
  6  7  2  0  0  0  0
  6  8  1  0  0  0  0
  8  9  2  0  0  0  0
  9 10  1  0  0  0  0
 10 11  2  0  0  0  0
 11 12  1  0  0  0  0
 12 13  1  0  0  0  0
 12 14  2  0  0  0  0
  8 14  1  0  0  0  0
  9 15  1  0  0  0  0
  5 15  1  0  0  0  0
 15 16  1  0  0  0  0
 15 17  1  0  0  0  0
  3 18  1  0  0  0  0
 18 19  2  0  0  0  0
 19 20  1  0  0  0  0
 20 21  2  0  0  0  0
 21 22  1  0  0  0  0
 22 23  2  0  0  0  0
 23 24  1  0  0  0  0
 19 24  1  0  0  0  0
 24 25  2  0  0  0  0
 25 26  1  0  0  0  0
 26 27  2  0  0  0  0
 18 27  1  0  0  0  0
M  END
> <ID>
CPD_1865

$$$$
CPD_1870
  Mrv1822 09091914012D          

 40 44  0  0  0  0            999 V2000
    2.3746    4.3466    0.0000 H   0  0  0  0  0  0  0  0  0  0  0  0
    1.5625    4.2015    0.0000 O   0  0  0  0  0  0  0  0  0  0  0  0
    1.2821    3.4256    0.0000 C   0  0  0  0  0  0  0  0  0  0  0  0
    0.4700    3.2805    0.0000 C   0  0  0  0  0  0  0  0  0  0  0  0
   -0.0016    2.6036    0.0000 C   0  0  0  0  0  0  0  0  0  0  0  0
   -0.6785    3.0752    0.0000 C   0  0  0  0  0  0  0  0  0  0  0  0
   -0.9589    2.2993    0.0000 C   0  0  0  0  0  0  0  0  0  0  0  0
   -1.7710    2.1542    0.0000 C   0  0  0  0  0  0  0  0  0  0  0  0
   -2.3028    2.7849    0.0000 N   0  0  0  0  0  0  0  0  0  0  0  0
   -2.0224    3.5608    0.0000 C   0  0  0  0  0  0  0  0  0  0  0  0
   -1.2103    3.7060    0.0000 C   0  0  0  0  0  0  0  0  0  0  0  0
   -3.1149    2.6398    0.0000 C   0  0  0  0  0  0  0  0  0  0  0  0
   -3.3953    1.8639    0.0000 O   0  0  0  0  0  0  0  0  0  0  0  0
   -3.6467    3.2706    0.0000 O   0  0  0  0  0  0  0  0  0  0  0  0
   -4.4588    3.1254    0.0000 C   0  0  0  0  0  0  0  0  0  0  0  0
   -5.2710    2.9803    0.0000 C   0  0  0  0  0  0  0  0  0  0  0  0
   -4.3137    2.3133    0.0000 C   0  0  0  0  0  0  0  0  0  0  0  0
   -4.6040    3.9376    0.0000 C   0  0  0  0  0  0  0  0  0  0  0  0
   -0.2069    3.7521    0.0000 C   0  0  0  0  0  0  0  0  0  0  0  0
   -0.3520    4.5642    0.0000 O   0  0  0  0  0  0  0  0  0  0  0  0
    1.8139    2.7948    0.0000 C   0  0  0  0  0  0  0  0  0  0  0  0
    2.6367    2.8543    0.0000 C   0  0  0  0  0  0  0  0  0  0  0  0
    2.9476    2.0901    0.0000 N   0  0  0  0  0  0  0  0  0  0  0  0
    3.7566    1.9285    0.0000 C   0  0  0  0  0  0  0  0  0  0  0  0
    4.1346    1.1952    0.0000 C   0  0  0  0  0  0  0  0  0  0  0  0
    3.7971    0.4424    0.0000 N   0  0  0  0  0  0  0  0  0  0  0  0
    2.9981    0.2370    0.0000 C   0  0  0  0  0  0  0  0  0  0  0  0
    2.3393    0.7336    0.0000 C   0  0  0  0  0  0  0  0  0  0  0  0
    2.3168    1.5583    0.0000 C   0  0  0  0  0  0  0  0  0  0  0  0
    1.6162    1.9939    0.0000 C   0  0  0  0  0  0  0  0  0  0  0  0
    0.8886    1.6049    0.0000 C   0  0  0  0  0  0  0  0  0  0  0  0
    0.8617    0.7803    0.0000 C   0  0  0  0  0  0  0  0  0  0  0  0
    1.5624    0.3448    0.0000 C   0  0  0  0  0  0  0  0  0  0  0  0
    4.3288   -0.1883    0.0000 C   0  0  0  0  0  0  0  0  0  0  0  0
    5.1410   -0.0432    0.0000 O   0  0  0  0  0  0  0  0  0  0  0  0
    4.0484   -0.9642    0.0000 O   0  0  0  0  0  0  0  0  0  0  0  0
    4.5802   -1.5950    0.0000 C   0  0  0  0  0  0  0  0  0  0  0  0
    5.1120   -2.2258    0.0000 C   0  0  0  0  0  0  0  0  0  0  0  0
    3.9494   -2.1268    0.0000 C   0  0  0  0  0  0  0  0  0  0  0  0
    5.2110   -1.0632    0.0000 C   0  0  0  0  0  0  0  0  0  0  0  0
  1  2  1  0  0  0  0
  2  3  1  0  0  0  0
  3  4  1  0  0  0  0
  4  5  1  0  0  0  0
  5  6  1  0  0  0  0
  6  7  1  0  0  0  0
  7  8  1  0  0  0  0
  8  9  1  0  0  0  0
  9 10  1  0  0  0  0
 10 11  1  0  0  0  0
  6 11  1  0  0  0  0
  9 12  1  0  0  0  0
 12 13  2  0  0  0  0
 12 14  1  0  0  0  0
 14 15  1  0  0  0  0
 15 16  1  0  0  0  0
 15 17  1  0  0  0  0
 15 18  1  0  0  0  0
  6 19  1  0  0  0  0
  4 19  1  0  0  0  0
 19 20  2  0  0  0  0
  3 21  1  0  0  0  0
 21 22  2  0  0  0  0
 22 23  1  0  0  0  0
 23 24  1  0  0  0  0
 24 25  1  0  0  0  0
 25 26  1  0  0  0  0
 26 27  1  0  0  0  0
 27 28  1  0  0  0  0
 28 29  2  0  0  0  0
 23 29  1  0  0  0  0
 29 30  1  0  0  0  0
 21 30  1  0  0  0  0
 30 31  2  0  0  0  0
 31 32  1  0  0  0  0
 32 33  2  0  0  0  0
 28 33  1  0  0  0  0
 26 34  1  0  0  0  0
 34 35  2  0  0  0  0
 34 36  1  0  0  0  0
 36 37  1  0  0  0  0
 37 38  1  0  0  0  0
 37 39  1  0  0  0  0
 37 40  1  0  0  0  0
M  END
> <ID>
CPD_1870

$$$$
CPD_1875
  Mrv1822 09091914012D          

 32 34  0  0  0  0            999 V2000
   -2.2334   -0.3020    0.0000 H   0  0  0  0  0  0  0  0  0  0  0  0
   -1.4084   -0.3020    0.0000 O   0  0  0  0  0  0  0  0  0  0  0  0
   -0.9959    0.4125    0.0000 C   0  0  0  0  0  0  0  0  0  0  0  0
   -0.1709    0.4125    0.0000 C   0  0  0  0  0  0  0  0  0  0  0  0
    0.4125    0.9959    0.0000 C   0  0  0  0  0  0  0  0  0  0  0  0
    0.9959    0.4125    0.0000 C   0  0  0  0  0  0  0  0  0  0  0  0
    1.4084    1.1270    0.0000 C   0  0  0  0  0  0  0  0  0  0  0  0
    2.2334    1.1270    0.0000 C   0  0  0  0  0  0  0  0  0  0  0  0
    2.6459    0.4125    0.0000 N   0  0  0  0  0  0  0  0  0  0  0  0
    2.2334   -0.3020    0.0000 C   0  0  0  0  0  0  0  0  0  0  0  0
    1.4084   -0.3020    0.0000 C   0  0  0  0  0  0  0  0  0  0  0  0
    3.4709    0.4125    0.0000 C   0  0  0  0  0  0  0  0  0  0  0  0
    3.8834    1.1270    0.0000 O   0  0  0  0  0  0  0  0  0  0  0  0
    3.8834   -0.3020    0.0000 O   0  0  0  0  0  0  0  0  0  0  0  0
    4.7084   -0.3020    0.0000 C   0  0  0  0  0  0  0  0  0  0  0  0
    5.5334   -0.3020    0.0000 C   0  0  0  0  0  0  0  0  0  0  0  0
    4.7084    0.5230    0.0000 C   0  0  0  0  0  0  0  0  0  0  0  0
    4.7084   -1.1270    0.0000 C   0  0  0  0  0  0  0  0  0  0  0  0
    0.4125   -0.1709    0.0000 C   0  0  0  0  0  0  0  0  0  0  0  0
    0.4125   -0.9959    0.0000 O   0  0  0  0  0  0  0  0  0  0  0  0
   -1.4084    1.1270    0.0000 C   0  0  0  0  0  0  0  0  0  0  0  0
   -2.2334    1.1270    0.0000 C   0  0  0  0  0  0  0  0  0  0  0  0
   -2.6459    0.4125    0.0000 O   0  0  0  0  0  0  0  0  0  0  0  0
   -2.6459    1.8414    0.0000 C   0  0  0  0  0  0  0  0  0  0  0  0
   -2.2334    2.5559    0.0000 C   0  0  0  0  0  0  0  0  0  0  0  0
   -1.4084    2.5559    0.0000 C   0  0  0  0  0  0  0  0  0  0  0  0
   -0.9959    1.8414    0.0000 C   0  0  0  0  0  0  0  0  0  0  0  0
   -2.6459    3.2704    0.0000 N   0  0  0  0  0  0  0  0  0  0  0  0
   -3.4709    3.2704    0.0000 C   0  0  0  0  0  0  0  0  0  0  0  0
   -3.8834    2.5559    0.0000 C   0  0  0  0  0  0  0  0  0  0  0  0
   -2.2334    3.9849    0.0000 C   0  0  0  0  0  0  0  0  0  0  0  0
   -2.6459    4.6993    0.0000 C   0  0  0  0  0  0  0  0  0  0  0  0
  1  2  1  0  0  0  0
  2  3  1  0  0  0  0
  3  4  1  0  0  0  0
  4  5  1  0  0  0  0
  5  6  1  0  0  0  0
  6  7  1  0  0  0  0
  7  8  1  0  0  0  0
  8  9  1  0  0  0  0
  9 10  1  0  0  0  0
 10 11  1  0  0  0  0
  6 11  1  0  0  0  0
  9 12  1  0  0  0  0
 12 13  2  0  0  0  0
 12 14  1  0  0  0  0
 14 15  1  0  0  0  0
 15 16  1  0  0  0  0
 15 17  1  0  0  0  0
 15 18  1  0  0  0  0
  6 19  1  0  0  0  0
  4 19  1  0  0  0  0
 19 20  2  0  0  0  0
  3 21  1  0  0  0  0
 21 22  2  0  0  0  0
 22 23  1  0  0  0  0
 22 24  1  0  0  0  0
 24 25  2  0  0  0  0
 25 26  1  0  0  0  0
 26 27  2  0  0  0  0
 21 27  1  0  0  0  0
 25 28  1  0  0  0  0
 28 29  1  0  0  0  0
 29 30  1  0  0  0  0
 28 31  1  0  0  0  0
 31 32  1  0  0  0  0
M  END
> <ID>
CPD_1875

$$$$
CPD_1880
  Mrv1822 09091914012D          

 36 39  0  0  0  0            999 V2000
   -1.4084   -6.3584    0.0000 H   0  0  0  0  0  0  0  0  0  0  0  0
   -0.6939   -5.9459    0.0000 O   0  0  0  0  0  0  0  0  0  0  0  0
   -0.6939   -5.1209    0.0000 C   0  0  0  0  0  0  0  0  0  0  0  0
   -0.6939   -4.2959    0.0000 C   0  0  0  0  0  0  0  0  0  0  0  0
   -1.5189   -5.1209    0.0000 C   0  0  0  0  0  0  0  0  0  0  0  0
   -1.9314   -5.8353    0.0000 C   0  0  0  0  0  0  0  0  0  0  0  0
   -2.7564   -5.8353    0.0000 C   0  0  0  0  0  0  0  0  0  0  0  0
   -3.1689   -5.1209    0.0000 C   0  0  0  0  0  0  0  0  0  0  0  0
   -2.7564   -4.4064    0.0000 Cl  0  0  0  0  0  0  0  0  0  0  0  0
   -3.9939   -5.1209    0.0000 C   0  0  0  0  0  0  0  0  0  0  0  0
   -4.4064   -5.8353    0.0000 C   0  0  0  0  0  0  0  0  0  0  0  0
   -3.9939   -6.5498    0.0000 N   0  0  0  0  0  0  0  0  0  0  0  0
   -3.1689   -6.5498    0.0000 C   0  0  0  0  0  0  0  0  0  0  0  0
   -2.7564   -7.2643    0.0000 C   0  0  0  0  0  0  0  0  0  0  0  0
   -5.2314   -5.8353    0.0000 C   0  0  0  0  0  0  0  0  0  0  0  0
   -5.6439   -6.5498    0.0000 C   0  0  0  0  0  0  0  0  0  0  0  0
   -5.6439   -5.1209    0.0000 C   0  0  0  0  0  0  0  0  0  0  0  0
   -5.2314   -4.4064    0.0000 C   0  0  0  0  0  0  0  0  0  0  0  0
   -4.4064   -4.4064    0.0000 C   0  0  0  0  0  0  0  0  0  0  0  0
    0.1311   -5.1209    0.0000 C   0  0  0  0  0  0  0  0  0  0  0  0
    0.7145   -4.5375    0.0000 C   0  0  0  0  0  0  0  0  0  0  0  0
    1.2978   -5.1209    0.0000 C   0  0  0  0  0  0  0  0  0  0  0  0
    1.7103   -4.4064    0.0000 C   0  0  0  0  0  0  0  0  0  0  0  0
    2.5353   -4.4064    0.0000 C   0  0  0  0  0  0  0  0  0  0  0  0
    2.9478   -5.1209    0.0000 N   0  0  0  0  0  0  0  0  0  0  0  0
    2.5353   -5.8353    0.0000 C   0  0  0  0  0  0  0  0  0  0  0  0
    1.7103   -5.8353    0.0000 C   0  0  0  0  0  0  0  0  0  0  0  0
    3.7728   -5.1209    0.0000 C   0  0  0  0  0  0  0  0  0  0  0  0
    4.1853   -4.4064    0.0000 O   0  0  0  0  0  0  0  0  0  0  0  0
    4.1853   -5.8353    0.0000 O   0  0  0  0  0  0  0  0  0  0  0  0
    5.0103   -5.8353    0.0000 C   0  0  0  0  0  0  0  0  0  0  0  0
    5.8353   -5.8353    0.0000 C   0  0  0  0  0  0  0  0  0  0  0  0
    5.0103   -6.6603    0.0000 C   0  0  0  0  0  0  0  0  0  0  0  0
    5.0103   -5.0103    0.0000 C   0  0  0  0  0  0  0  0  0  0  0  0
    0.7145   -5.7042    0.0000 C   0  0  0  0  0  0  0  0  0  0  0  0
    0.7145   -6.5292    0.0000 O   0  0  0  0  0  0  0  0  0  0  0  0
  1  2  1  0  0  0  0
  2  3  1  0  0  0  0
  3  4  1  0  0  0  0
  3  5  1  0  0  0  0
  5  6  1  0  0  0  0
  6  7  1  0  0  0  0
  7  8  2  0  0  0  0
  8  9  1  0  0  0  0
  8 10  1  0  0  0  0
 10 11  2  0  0  0  0
 11 12  1  0  0  0  0
 12 13  2  0  0  0  0
  7 13  1  0  0  0  0
 13 14  1  0  0  0  0
 11 15  1  0  0  0  0
 15 16  1  0  0  0  0
 15 17  2  0  0  0  0
 17 18  1  0  0  0  0
 18 19  2  0  0  0  0
 10 19  1  0  0  0  0
  3 20  1  0  0  0  0
 20 21  1  0  0  0  0
 21 22  1  0  0  0  0
 22 23  1  0  0  0  0
 23 24  1  0  0  0  0
 24 25  1  0  0  0  0
 25 26  1  0  0  0  0
 26 27  1  0  0  0  0
 22 27  1  0  0  0  0
 25 28  1  0  0  0  0
 28 29  2  0  0  0  0
 28 30  1  0  0  0  0
 30 31  1  0  0  0  0
 31 32  1  0  0  0  0
 31 33  1  0  0  0  0
 31 34  1  0  0  0  0
 22 35  1  0  0  0  0
 20 35  1  0  0  0  0
 35 36  2  0  0  0  0
M  END
> <ID>
CPD_1880

$$$$
CPD_1885
  Mrv1822 09091914012D          

 36 39  0  0  0  0            999 V2000
   -5.7158   -0.0000    0.0000 H   0  0  0  0  0  0  0  0  0  0  0  0
   -5.0013    0.4125    0.0000 O   0  0  0  0  0  0  0  0  0  0  0  0
   -5.0013    1.2375    0.0000 C   0  0  0  0  0  0  0  0  0  0  0  0
   -4.2868    1.6500    0.0000 C   0  0  0  0  0  0  0  0  0  0  0  0
   -4.2868    2.4750    0.0000 C   0  0  0  0  0  0  0  0  0  0  0  0
   -3.5724    1.2375    0.0000 C   0  0  0  0  0  0  0  0  0  0  0  0
   -3.5724    0.4125    0.0000 O   0  0  0  0  0  0  0  0  0  0  0  0
   -2.8579    1.6500    0.0000 C   0  0  0  0  0  0  0  0  0  0  0  0
   -2.8579    2.4750    0.0000 C   0  0  0  0  0  0  0  0  0  0  0  0
   -2.1434    1.2375    0.0000 C   0  0  0  0  0  0  0  0  0  0  0  0
   -2.1434    0.4125    0.0000 O   0  0  0  0  0  0  0  0  0  0  0  0
   -1.4289    1.6500    0.0000 C   0  0  0  0  0  0  0  0  0  0  0  0
   -1.3427    2.4705    0.0000 C   0  0  0  0  0  0  0  0  0  0  0  0
   -0.5357    2.6420    0.0000 N   0  0  0  0  0  0  0  0  0  0  0  0
   -0.2002    3.3957    0.0000 C   0  0  0  0  0  0  0  0  0  0  0  0
   -0.1232    1.9275    0.0000 N   0  0  0  0  0  0  0  0  0  0  0  0
   -0.6753    1.3144    0.0000 C   0  0  0  0  0  0  0  0  0  0  0  0
   -5.7158    1.6500    0.0000 C   0  0  0  0  0  0  0  0  0  0  0  0
   -6.4302    1.2375    0.0000 C   0  0  0  0  0  0  0  0  0  0  0  0
   -7.1447    1.6500    0.0000 C   0  0  0  0  0  0  0  0  0  0  0  0
   -7.1447    2.4750    0.0000 C   0  0  0  0  0  0  0  0  0  0  0  0
   -7.8592    2.8875    0.0000 O   0  0  0  0  0  0  0  0  0  0  0  0
   -8.5737    2.4750    0.0000 C   0  0  0  0  0  0  0  0  0  0  0  0
   -8.5737    1.6500    0.0000 O   0  0  0  0  0  0  0  0  0  0  0  0
   -9.2881    2.8875    0.0000 C   0  0  0  0  0  0  0  0  0  0  0  0
   -9.2881    3.7125    0.0000 C   0  0  0  0  0  0  0  0  0  0  0  0
  -10.0026    4.1250    0.0000 C   0  0  0  0  0  0  0  0  0  0  0  0
  -10.7171    3.7125    0.0000 C   0  0  0  0  0  0  0  0  0  0  0  0
  -10.7171    2.8875    0.0000 C   0  0  0  0  0  0  0  0  0  0  0  0
  -10.0026    2.4750    0.0000 C   0  0  0  0  0  0  0  0  0  0  0  0
  -10.0026    1.6500    0.0000 C   0  0  0  0  0  0  0  0  0  0  0  0
  -10.7171    1.2375    0.0000 C   0  0  0  0  0  0  0  0  0  0  0  0
  -11.4315    1.6500    0.0000 C   0  0  0  0  0  0  0  0  0  0  0  0
  -11.4315    2.4750    0.0000 C   0  0  0  0  0  0  0  0  0  0  0  0
   -6.4302    2.8875    0.0000 C   0  0  0  0  0  0  0  0  0  0  0  0
   -5.7158    2.4750    0.0000 C   0  0  0  0  0  0  0  0  0  0  0  0
  1  2  1  0  0  0  0
  2  3  1  0  0  0  0
  3  4  1  0  0  0  0
  4  5  1  0  0  0  0
  4  6  1  0  0  0  0
  6  7  2  0  0  0  0
  6  8  1  0  0  0  0
  8  9  1  0  0  0  0
  8 10  1  0  0  0  0
 10 11  2  0  0  0  0
 10 12  1  0  0  0  0
 12 13  2  0  0  0  0
 13 14  1  0  0  0  0
 14 15  1  0  0  0  0
 14 16  1  0  0  0  0
 16 17  2  0  0  0  0
 12 17  1  0  0  0  0
  3 18  1  0  0  0  0
 18 19  2  0  0  0  0
 19 20  1  0  0  0  0
 20 21  2  0  0  0  0
 21 22  1  0  0  0  0
 22 23  1  0  0  0  0
 23 24  2  0  0  0  0
 23 25  1  0  0  0  0
 25 26  2  0  0  0  0
 26 27  1  0  0  0  0
 27 28  2  0  0  0  0
 28 29  1  0  0  0  0
 29 30  2  0  0  0  0
 25 30  1  0  0  0  0
 30 31  1  0  0  0  0
 31 32  2  0  0  0  0
 32 33  1  0  0  0  0
 33 34  2  0  0  0  0
 29 34  1  0  0  0  0
 21 35  1  0  0  0  0
 35 36  2  0  0  0  0
 18 36  1  0  0  0  0
M  END
> <ID>
CPD_1885

$$$$
CPD_1890
  Mrv1822 09091914012D          

 36 38  0  0  0  0            999 V2000
    2.6664   -5.6645    0.0000 H   0  0  0  0  0  0  0  0  0  0  0  0
    2.2539   -4.9500    0.0000 O   0  0  0  0  0  0  0  0  0  0  0  0
    1.4289   -4.9500    0.0000 C   0  0  0  0  0  0  0  0  0  0  0  0
    0.6039   -4.9500    0.0000 C   0  0  0  0  0  0  0  0  0  0  0  0
    1.4289   -5.7750    0.0000 C   0  0  0  0  0  0  0  0  0  0  0  0
    0.7145   -6.1875    0.0000 C   0  0  0  0  0  0  0  0  0  0  0  0
    2.1434   -6.1875    0.0000 C   0  0  0  0  0  0  0  0  0  0  0  0
    2.8579   -5.7750    0.0000 O   0  0  0  0  0  0  0  0  0  0  0  0
    2.1434   -7.0125    0.0000 C   0  0  0  0  0  0  0  0  0  0  0  0
    1.4289   -7.4250    0.0000 C   0  0  0  0  0  0  0  0  0  0  0  0
    2.8579   -7.4250    0.0000 C   0  0  0  0  0  0  0  0  0  0  0  0
    3.5724   -7.0125    0.0000 O   0  0  0  0  0  0  0  0  0  0  0  0
    2.8579   -8.2500    0.0000 C   0  0  0  0  0  0  0  0  0  0  0  0
    3.5253   -8.7349    0.0000 C   0  0  0  0  0  0  0  0  0  0  0  0
    3.2704   -9.5195    0.0000 N   0  0  0  0  0  0  0  0  0  0  0  0
    3.7553  -10.1870    0.0000 C   0  0  0  0  0  0  0  0  0  0  0  0
    2.4454   -9.5195    0.0000 N   0  0  0  0  0  0  0  0  0  0  0  0
    2.1904   -8.7349    0.0000 C   0  0  0  0  0  0  0  0  0  0  0  0
    1.4289   -4.1250    0.0000 C   0  0  0  0  0  0  0  0  0  0  0  0
    0.7145   -3.7125    0.0000 C   0  0  0  0  0  0  0  0  0  0  0  0
    0.7145   -2.8875    0.0000 C   0  0  0  0  0  0  0  0  0  0  0  0
    1.4289   -2.4750    0.0000 C   0  0  0  0  0  0  0  0  0  0  0  0
    1.4289   -1.6500    0.0000 N   0  0  0  0  0  0  0  0  0  0  0  0
    0.7145   -1.2375    0.0000 C   0  0  0  0  0  0  0  0  0  0  0  0
    0.7145   -0.4125    0.0000 C   0  0  0  0  0  0  0  0  0  0  0  0
    0.0000    0.0000    0.0000 C   0  0  0  0  0  0  0  0  0  0  0  0
   -0.7145   -0.4125    0.0000 O   0  0  0  0  0  0  0  0  0  0  0  0
    0.0000    0.8250    0.0000 C   0  0  0  0  0  0  0  0  0  0  0  0
    0.7145    1.2375    0.0000 C   0  0  0  0  0  0  0  0  0  0  0  0
    0.1842    1.8695    0.0000 C   0  0  0  0  0  0  0  0  0  0  0  0
    1.2448    1.8695    0.0000 C   0  0  0  0  0  0  0  0  0  0  0  0
    1.4289    0.8250    0.0000 C   0  0  0  0  0  0  0  0  0  0  0  0
    1.4289    0.0000    0.0000 C   0  0  0  0  0  0  0  0  0  0  0  0
    2.1434   -0.4125    0.0000 O   0  0  0  0  0  0  0  0  0  0  0  0
    2.1434   -2.8875    0.0000 C   0  0  0  0  0  0  0  0  0  0  0  0
    2.1434   -3.7125    0.0000 C   0  0  0  0  0  0  0  0  0  0  0  0
  1  2  1  0  0  0  0
  2  3  1  0  0  0  0
  3  4  1  0  0  0  0
  3  5  1  0  0  0  0
  5  6  1  0  0  0  0
  5  7  1  0  0  0  0
  7  8  2  0  0  0  0
  7  9  1  0  0  0  0
  9 10  1  0  0  0  0
  9 11  1  0  0  0  0
 11 12  2  0  0  0  0
 11 13  1  0  0  0  0
 13 14  2  0  0  0  0
 14 15  1  0  0  0  0
 15 16  1  0  0  0  0
 15 17  1  0  0  0  0
 17 18  2  0  0  0  0
 13 18  1  0  0  0  0
  3 19  1  0  0  0  0
 19 20  2  0  0  0  0
 20 21  1  0  0  0  0
 21 22  2  0  0  0  0
 22 23  1  0  0  0  0
 23 24  1  0  0  0  0
 24 25  2  0  0  0  0
 25 26  1  0  0  0  0
 26 27  2  0  0  0  0
 26 28  1  0  0  0  0
 28 29  1  0  0  0  0
 29 30  1  0  0  0  0
 29 31  1  0  0  0  0
 29 32  1  0  0  0  0
 32 33  1  0  0  0  0
 25 33  1  0  0  0  0
 33 34  2  0  0  0  0
 22 35  1  0  0  0  0
 35 36  2  0  0  0  0
 19 36  1  0  0  0  0
M  END
> <ID>
CPD_1890

$$$$
CPD_1895
  Mrv1822 09091914012D          

 21 23  0  0  0  0            999 V2000
    1.2854   -2.2317    0.0000 C   0  0  0  0  0  0  0  0  0  0  0  0
    2.0823   -2.0182    0.0000 C   0  0  0  0  0  0  0  0  0  0  0  0
    2.6656   -2.6015    0.0000 N   0  0  0  0  0  0  0  0  0  0  0  0
    3.4906   -2.6015    0.0000 C   0  0  0  0  0  0  0  0  0  0  0  0
    3.4906   -3.4265    0.0000 C   0  0  0  0  0  0  0  0  0  0  0  0
    4.3156   -3.4265    0.0000 O   0  0  0  0  0  0  0  0  0  0  0  0
    2.6656   -3.4265    0.0000 C   0  0  0  0  0  0  0  0  0  0  0  0
    3.4906   -4.2515    0.0000 C   0  0  0  0  0  0  0  0  0  0  0  0
    3.9031   -4.9660    0.0000 C   0  0  0  0  0  0  0  0  0  0  0  0
    3.0781   -4.9660    0.0000 C   0  0  0  0  0  0  0  0  0  0  0  0
    2.2958   -1.2213    0.0000 C   0  0  0  0  0  0  0  0  0  0  0  0
    3.0927   -1.0077    0.0000 O   0  0  0  0  0  0  0  0  0  0  0  0
    1.7124   -0.6379    0.0000 N   0  0  0  0  0  0  0  0  0  0  0  0
    1.9260    0.1590    0.0000 C   0  0  0  0  0  0  0  0  0  0  0  0
    1.3426    0.7423    0.0000 C   0  0  0  0  0  0  0  0  0  0  0  0
    0.5457    0.5288    0.0000 F   0  0  0  0  0  0  0  0  0  0  0  0
    1.5561    1.5392    0.0000 C   0  0  0  0  0  0  0  0  0  0  0  0
    2.3530    1.7528    0.0000 C   0  0  0  0  0  0  0  0  0  0  0  0
    2.5665    2.5496    0.0000 Br  0  0  0  0  0  0  0  0  0  0  0  0
    2.9364    1.1694    0.0000 C   0  0  0  0  0  0  0  0  0  0  0  0
    2.7228    0.3725    0.0000 C   0  0  0  0  0  0  0  0  0  0  0  0
  1  2  1  0  0  0  0
  2  3  1  0  0  0  0
  3  4  1  0  0  0  0
  4  5  1  0  0  0  0
  5  6  1  0  0  0  0
  5  7  1  0  0  0  0
  3  7  1  0  0  0  0
  5  8  1  0  0  0  0
  8  9  1  0  0  0  0
  9 10  1  0  0  0  0
  8 10  1  0  0  0  0
  2 11  1  0  0  0  0
 11 12  2  0  0  0  0
 11 13  1  0  0  0  0
 13 14  1  0  0  0  0
 14 15  2  0  0  0  0
 15 16  1  0  0  0  0
 15 17  1  0  0  0  0
 17 18  2  0  0  0  0
 18 19  1  0  0  0  0
 18 20  1  0  0  0  0
 20 21  2  0  0  0  0
 14 21  1  0  0  0  0
M  END
> <ID>
CPD_1895

$$$$
CPD_1900
  Mrv1822 09091914012D          

 18 18  0  0  0  0            999 V2000
   -0.7145    5.3625    0.0000 C   0  0  0  0  0  0  0  0  0  0  0  0
   -0.7145    4.5375    0.0000 N   0  0  0  0  0  0  0  0  0  0  0  0
    0.0000    4.1250    0.0000 C   0  0  0  0  0  0  0  0  0  0  0  0
    0.7145    4.5375    0.0000 O   0  0  0  0  0  0  0  0  0  0  0  0
    0.0000    3.3000    0.0000 C   0  0  0  0  0  0  0  0  0  0  0  0
   -0.7145    2.8875    0.0000 C   0  0  0  0  0  0  0  0  0  0  0  0
    0.7145    2.8875    0.0000 N   0  0  0  0  0  0  0  0  0  0  0  0
    0.7145    2.0625    0.0000 C   0  0  0  0  0  0  0  0  0  0  0  0
   -0.1105    2.0625    0.0000 F   0  0  0  0  0  0  0  0  0  0  0  0
    1.5395    2.0625    0.0000 F   0  0  0  0  0  0  0  0  0  0  0  0
    0.7145    1.2375    0.0000 C   0  0  0  0  0  0  0  0  0  0  0  0
    1.4289    0.8250    0.0000 C   0  0  0  0  0  0  0  0  0  0  0  0
    1.4289   -0.0000    0.0000 C   0  0  0  0  0  0  0  0  0  0  0  0
    0.7145   -0.4125    0.0000 C   0  0  0  0  0  0  0  0  0  0  0  0
    0.7145   -1.2375    0.0000 C   0  0  0  0  0  0  0  0  0  0  0  0
    1.4289   -1.6500    0.0000 O   0  0  0  0  0  0  0  0  0  0  0  0
    0.0000    0.0000    0.0000 C   0  0  0  0  0  0  0  0  0  0  0  0
    0.0000    0.8250    0.0000 C   0  0  0  0  0  0  0  0  0  0  0  0
  1  2  1  0  0  0  0
  2  3  1  0  0  0  0
  3  4  2  0  0  0  0
  3  5  1  0  0  0  0
  5  6  1  0  0  0  0
  5  7  1  0  0  0  0
  7  8  1  0  0  0  0
  8  9  1  0  0  0  0
  8 10  1  0  0  0  0
  8 11  1  0  0  0  0
 11 12  2  0  0  0  0
 12 13  1  0  0  0  0
 13 14  2  0  0  0  0
 14 15  1  0  0  0  0
 15 16  1  0  0  0  0
 14 17  1  0  0  0  0
 17 18  2  0  0  0  0
 11 18  1  0  0  0  0
M  END
> <ID>
CPD_1900

$$$$
CPD_1905
  Mrv1822 09091914012D          

 30 33  0  0  0  0            999 V2000
    7.6391    3.5854    0.0000 C   0  0  0  0  0  0  0  0  0  0  0  0
    6.9246    3.1729    0.0000 O   0  0  0  0  0  0  0  0  0  0  0  0
    6.9246    2.3479    0.0000 C   0  0  0  0  0  0  0  0  0  0  0  0
    7.6391    1.9354    0.0000 O   0  0  0  0  0  0  0  0  0  0  0  0
    6.2102    1.9354    0.0000 C   0  0  0  0  0  0  0  0  0  0  0  0
    6.2102    1.1104    0.0000 C   0  0  0  0  0  0  0  0  0  0  0  0
    6.9246    0.6979    0.0000 O   0  0  0  0  0  0  0  0  0  0  0  0
    6.9246   -0.1271    0.0000 C   0  0  0  0  0  0  0  0  0  0  0  0
    7.6391   -0.5396    0.0000 C   0  0  0  0  0  0  0  0  0  0  0  0
    7.6391   -1.3646    0.0000 C   0  0  0  0  0  0  0  0  0  0  0  0
    6.9246   -1.7771    0.0000 C   0  0  0  0  0  0  0  0  0  0  0  0
    6.2102   -1.3646    0.0000 C   0  0  0  0  0  0  0  0  0  0  0  0
    6.2102   -0.5396    0.0000 C   0  0  0  0  0  0  0  0  0  0  0  0
    5.4957    0.6979    0.0000 C   0  0  0  0  0  0  0  0  0  0  0  0
    4.7812    1.1104    0.0000 C   0  0  0  0  0  0  0  0  0  0  0  0
    4.7812    1.9354    0.0000 C   0  0  0  0  0  0  0  0  0  0  0  0
    4.0668    2.3479    0.0000 N   0  0  0  0  0  0  0  0  0  0  0  0
    3.3523    1.9354    0.0000 C   0  0  0  0  0  0  0  0  0  0  0  0
    3.3523    1.1104    0.0000 C   0  0  0  0  0  0  0  0  0  0  0  0
    2.6378    0.6979    0.0000 C   0  0  0  0  0  0  0  0  0  0  0  0
    1.9233    1.1104    0.0000 C   0  0  0  0  0  0  0  0  0  0  0  0
    1.1387    0.8555    0.0000 N   0  0  0  0  0  0  0  0  0  0  0  0
    0.6538    1.5229    0.0000 C   0  0  0  0  0  0  0  0  0  0  0  0
    1.1387    2.1904    0.0000 C   0  0  0  0  0  0  0  0  0  0  0  0
    0.8838    2.9750    0.0000 C   0  0  0  0  0  0  0  0  0  0  0  0
    1.4358    3.5881    0.0000 C   0  0  0  0  0  0  0  0  0  0  0  0
    1.1809    4.3727    0.0000 N   0  0  0  0  0  0  0  0  0  0  0  0
    1.9233    1.9354    0.0000 C   0  0  0  0  0  0  0  0  0  0  0  0
    2.6378    2.3479    0.0000 C   0  0  0  0  0  0  0  0  0  0  0  0
    5.4957    2.3479    0.0000 C   0  0  0  0  0  0  0  0  0  0  0  0
  1  2  1  0  0  0  0
  2  3  1  0  0  0  0
  3  4  2  0  0  0  0
  3  5  1  0  0  0  0
  5  6  2  0  0  0  0
  6  7  1  0  0  0  0
  7  8  1  0  0  0  0
  8  9  2  0  0  0  0
  9 10  1  0  0  0  0
 10 11  2  0  0  0  0
 11 12  1  0  0  0  0
 12 13  2  0  0  0  0
  8 13  1  0  0  0  0
  6 14  1  0  0  0  0
 14 15  2  0  0  0  0
 15 16  1  0  0  0  0
 16 17  1  0  0  0  0
 17 18  1  0  0  0  0
 18 19  2  0  0  0  0
 19 20  1  0  0  0  0
 20 21  2  0  0  0  0
 21 22  1  0  0  0  0
 22 23  1  0  0  0  0
 23 24  2  0  0  0  0
 24 25  1  0  0  0  0
 25 26  1  0  0  0  0
 26 27  1  0  0  0  0
 24 28  1  0  0  0  0
 21 28  1  0  0  0  0
 28 29  2  0  0  0  0
 18 29  1  0  0  0  0
 16 30  2  0  0  0  0
  5 30  1  0  0  0  0
M  END
> <ID>
CPD_1905

$$$$
CPD_1910
  Mrv1822 09091914012D          

 30 32  0  0  0  0            999 V2000
    4.8946    1.8777    0.0000 C   0  0  0  0  0  0  0  0  0  0  0  0
    4.8946    1.0527    0.0000 C   0  0  0  0  0  0  0  0  0  0  0  0
    4.0696    1.0527    0.0000 C   0  0  0  0  0  0  0  0  0  0  0  0
    5.7196    1.0527    0.0000 C   0  0  0  0  0  0  0  0  0  0  0  0
    4.8946    0.2277    0.0000 O   0  0  0  0  0  0  0  0  0  0  0  0
    4.1801   -0.1848    0.0000 C   0  0  0  0  0  0  0  0  0  0  0  0
    3.4656    0.2277    0.0000 O   0  0  0  0  0  0  0  0  0  0  0  0
    4.1801   -1.0098    0.0000 N   0  0  0  0  0  0  0  0  0  0  0  0
    4.8476   -1.4947    0.0000 C   0  0  0  0  0  0  0  0  0  0  0  0
    4.5926   -2.2794    0.0000 C   0  0  0  0  0  0  0  0  0  0  0  0
    3.7676   -2.2794    0.0000 C   0  0  0  0  0  0  0  0  0  0  0  0
    3.5127   -1.4947    0.0000 C   0  0  0  0  0  0  0  0  0  0  0  0
    2.7281   -1.2398    0.0000 C   0  0  0  0  0  0  0  0  0  0  0  0
    2.5565   -0.4328    0.0000 N   0  0  0  0  0  0  0  0  0  0  0  0
    1.7719   -0.1779    0.0000 C   0  0  0  0  0  0  0  0  0  0  0  0
    1.1588   -0.7299    0.0000 N   0  0  0  0  0  0  0  0  0  0  0  0
    0.3742   -0.4750    0.0000 C   0  0  0  0  0  0  0  0  0  0  0  0
    0.2027    0.3320    0.0000 C   0  0  0  0  0  0  0  0  0  0  0  0
   -0.5820    0.5869    0.0000 Cl  0  0  0  0  0  0  0  0  0  0  0  0
    0.8158    0.8840    0.0000 C   0  0  0  0  0  0  0  0  0  0  0  0
    1.6004    0.6291    0.0000 C   0  0  0  0  0  0  0  0  0  0  0  0
    2.2135    1.1811    0.0000 S   0  0  0  0  0  0  0  0  0  0  0  0
    2.7655    0.5680    0.0000 O   0  0  0  0  0  0  0  0  0  0  0  0
    1.6614    1.7942    0.0000 O   0  0  0  0  0  0  0  0  0  0  0  0
    2.8266    1.7331    0.0000 N   0  0  0  0  0  0  0  0  0  0  0  0
    2.6550    2.5401    0.0000 C   0  0  0  0  0  0  0  0  0  0  0  0
    3.2681    3.0921    0.0000 C   0  0  0  0  0  0  0  0  0  0  0  0
    4.0528    2.8372    0.0000 O   0  0  0  0  0  0  0  0  0  0  0  0
    4.2243    2.0302    0.0000 C   0  0  0  0  0  0  0  0  0  0  0  0
    3.6112    1.4782    0.0000 C   0  0  0  0  0  0  0  0  0  0  0  0
  1  2  1  0  0  0  0
  2  3  1  0  0  0  0
  2  4  1  0  0  0  0
  2  5  1  0  0  0  0
  5  6  1  0  0  0  0
  6  7  2  0  0  0  0
  6  8  1  0  0  0  0
  8  9  1  0  0  0  0
  9 10  1  0  0  0  0
 10 11  1  0  0  0  0
 11 12  1  0  0  0  0
  8 12  1  0  0  0  0
 12 13  1  0  0  0  0
 13 14  1  0  0  0  0
 14 15  1  0  0  0  0
 15 16  2  0  0  0  0
 16 17  1  0  0  0  0
 17 18  2  0  0  0  0
 18 19  1  0  0  0  0
 18 20  1  0  0  0  0
 20 21  2  0  0  0  0
 15 21  1  0  0  0  0
 21 22  1  0  0  0  0
 22 23  2  0  0  0  0
 22 24  2  0  0  0  0
 22 25  1  0  0  0  0
 25 26  1  0  0  0  0
 26 27  1  0  0  0  0
 27 28  1  0  0  0  0
 28 29  1  0  0  0  0
 29 30  1  0  0  0  0
 25 30  1  0  0  0  0
M  END
> <ID>
CPD_1910

$$$$
CPD_1915
  Mrv1822 09091914012D          

 28 30  0  0  0  0            999 V2000
    4.2868   -0.0000    0.0000 C   0  0  0  0  0  0  0  0  0  0  0  0
    4.2868   -0.8250    0.0000 O   0  0  0  0  0  0  0  0  0  0  0  0
    3.5724   -1.2375    0.0000 C   0  0  0  0  0  0  0  0  0  0  0  0
    2.8579   -0.8250    0.0000 O   0  0  0  0  0  0  0  0  0  0  0  0
    3.5724   -2.0625    0.0000 C   0  0  0  0  0  0  0  0  0  0  0  0
    4.2868   -2.4750    0.0000 C   0  0  0  0  0  0  0  0  0  0  0  0
    5.0013   -2.0625    0.0000 N   0  0  0  0  0  0  0  0  0  0  0  0
    4.2868   -3.3000    0.0000 N   0  0  0  0  0  0  0  0  0  0  0  0
    3.5724   -3.7125    0.0000 C   0  0  0  0  0  0  0  0  0  0  0  0
    2.8579   -3.3000    0.0000 C   0  0  0  0  0  0  0  0  0  0  0  0
    2.1434   -3.7125    0.0000 N   0  0  0  0  0  0  0  0  0  0  0  0
    2.1434   -4.5375    0.0000 C   0  0  0  0  0  0  0  0  0  0  0  0
    2.8579   -4.9500    0.0000 N   0  0  0  0  0  0  0  0  0  0  0  0
    2.8579   -5.7750    0.0000 C   0  0  0  0  0  0  0  0  0  0  0  0
    2.1434   -6.1875    0.0000 C   0  0  0  0  0  0  0  0  0  0  0  0
    2.1434   -7.0125    0.0000 Cl  0  0  0  0  0  0  0  0  0  0  0  0
    1.4289   -5.7750    0.0000 C   0  0  0  0  0  0  0  0  0  0  0  0
    1.4289   -4.9500    0.0000 C   0  0  0  0  0  0  0  0  0  0  0  0
    0.7145   -4.5375    0.0000 S   0  0  0  0  0  0  0  0  0  0  0  0
    1.1270   -3.8230    0.0000 O   0  0  0  0  0  0  0  0  0  0  0  0
    0.3020   -5.2520    0.0000 O   0  0  0  0  0  0  0  0  0  0  0  0
    0.0000   -4.1250    0.0000 N   0  0  0  0  0  0  0  0  0  0  0  0
   -0.7145   -4.5375    0.0000 C   0  0  0  0  0  0  0  0  0  0  0  0
   -1.4289   -4.1250    0.0000 C   0  0  0  0  0  0  0  0  0  0  0  0
   -1.4289   -3.3000    0.0000 O   0  0  0  0  0  0  0  0  0  0  0  0
   -0.7145   -2.8875    0.0000 C   0  0  0  0  0  0  0  0  0  0  0  0
    0.0000   -3.3000    0.0000 C   0  0  0  0  0  0  0  0  0  0  0  0
    2.8579   -2.4750    0.0000 N   0  0  0  0  0  0  0  0  0  0  0  0
  1  2  1  0  0  0  0
  2  3  1  0  0  0  0
  3  4  2  0  0  0  0
  3  5  1  0  0  0  0
  5  6  2  0  0  0  0
  6  7  1  0  0  0  0
  6  8  1  0  0  0  0
  8  9  2  0  0  0  0
  9 10  1  0  0  0  0
 10 11  1  0  0  0  0
 11 12  1  0  0  0  0
 12 13  2  0  0  0  0
 13 14  1  0  0  0  0
 14 15  2  0  0  0  0
 15 16  1  0  0  0  0
 15 17  1  0  0  0  0
 17 18  2  0  0  0  0
 12 18  1  0  0  0  0
 18 19  1  0  0  0  0
 19 20  2  0  0  0  0
 19 21  2  0  0  0  0
 19 22  1  0  0  0  0
 22 23  1  0  0  0  0
 23 24  1  0  0  0  0
 24 25  1  0  0  0  0
 25 26  1  0  0  0  0
 26 27  1  0  0  0  0
 22 27  1  0  0  0  0
 10 28  2  0  0  0  0
  5 28  1  0  0  0  0
M  END
> <ID>
CPD_1915

$$$$
CPD_1920
  Mrv1822 09091914012D          

 28 30  0  0  0  0            999 V2000
    2.8579    0.0000    0.0000 O   0  0  0  0  0  0  0  0  0  0  0  0
    2.8579   -0.8250    0.0000 C   0  0  0  0  0  0  0  0  0  0  0  0
    2.1434   -1.2375    0.0000 O   0  0  0  0  0  0  0  0  0  0  0  0
    3.5724   -1.2375    0.0000 C   0  0  0  0  0  0  0  0  0  0  0  0
    3.5724   -2.0625    0.0000 C   0  0  0  0  0  0  0  0  0  0  0  0
    4.2868   -2.4750    0.0000 C   0  0  0  0  0  0  0  0  0  0  0  0
    4.2868   -3.3000    0.0000 C   0  0  0  0  0  0  0  0  0  0  0  0
    5.0013   -3.7125    0.0000 N   0  0  0  0  0  0  0  0  0  0  0  0
    5.7158   -3.3000    0.0000 C   0  0  0  0  0  0  0  0  0  0  0  0
    5.7158   -2.4750    0.0000 N   0  0  0  0  0  0  0  0  0  0  0  0
    6.4302   -2.0625    0.0000 C   0  0  0  0  0  0  0  0  0  0  0  0
    7.1447   -2.4750    0.0000 C   0  0  0  0  0  0  0  0  0  0  0  0
    7.8592   -2.0625    0.0000 Cl  0  0  0  0  0  0  0  0  0  0  0  0
    7.1447   -3.3000    0.0000 C   0  0  0  0  0  0  0  0  0  0  0  0
    6.4302   -3.7125    0.0000 C   0  0  0  0  0  0  0  0  0  0  0  0
    6.4302   -4.5375    0.0000 S   0  0  0  0  0  0  0  0  0  0  0  0
    5.6052   -4.5375    0.0000 O   0  0  0  0  0  0  0  0  0  0  0  0
    7.2552   -4.5375    0.0000 O   0  0  0  0  0  0  0  0  0  0  0  0
    6.4302   -5.3625    0.0000 N   0  0  0  0  0  0  0  0  0  0  0  0
    7.1447   -5.7750    0.0000 C   0  0  0  0  0  0  0  0  0  0  0  0
    7.1447   -6.6000    0.0000 C   0  0  0  0  0  0  0  0  0  0  0  0
    6.4302   -7.0125    0.0000 O   0  0  0  0  0  0  0  0  0  0  0  0
    5.7158   -6.6000    0.0000 C   0  0  0  0  0  0  0  0  0  0  0  0
    5.7158   -5.7750    0.0000 C   0  0  0  0  0  0  0  0  0  0  0  0
    3.5724   -3.7125    0.0000 C   0  0  0  0  0  0  0  0  0  0  0  0
    3.5724   -4.5375    0.0000 O   0  0  0  0  0  0  0  0  0  0  0  0
    2.8579   -3.3000    0.0000 C   0  0  0  0  0  0  0  0  0  0  0  0
    2.8579   -2.4750    0.0000 C   0  0  0  0  0  0  0  0  0  0  0  0
  1  2  1  0  0  0  0
  2  3  2  0  0  0  0
  2  4  1  0  0  0  0
  4  5  1  0  0  0  0
  5  6  2  0  0  0  0
  6  7  1  0  0  0  0
  7  8  1  0  0  0  0
  8  9  1  0  0  0  0
  9 10  2  0  0  0  0
 10 11  1  0  0  0  0
 11 12  2  0  0  0  0
 12 13  1  0  0  0  0
 12 14  1  0  0  0  0
 14 15  2  0  0  0  0
  9 15  1  0  0  0  0
 15 16  1  0  0  0  0
 16 17  2  0  0  0  0
 16 18  2  0  0  0  0
 16 19  1  0  0  0  0
 19 20  1  0  0  0  0
 20 21  1  0  0  0  0
 21 22  1  0  0  0  0
 22 23  1  0  0  0  0
 23 24  1  0  0  0  0
 19 24  1  0  0  0  0
  7 25  2  0  0  0  0
 25 26  1  0  0  0  0
 25 27  1  0  0  0  0
 27 28  2  0  0  0  0
  5 28  1  0  0  0  0
M  END
> <ID>
CPD_1920

$$$$
CPD_1925
  Mrv1822 09091914012D          

 32 33  0  0  0  0            999 V2000
   -1.9520   -3.6020    0.0000 C   0  0  0  0  0  0  0  0  0  0  0  0
   -1.1270   -3.6020    0.0000 C   0  0  0  0  0  0  0  0  0  0  0  0
   -0.7145   -2.8875    0.0000 O   0  0  0  0  0  0  0  0  0  0  0  0
    0.1105   -2.8875    0.0000 C   0  0  0  0  0  0  0  0  0  0  0  0
    0.5230   -3.6020    0.0000 O   0  0  0  0  0  0  0  0  0  0  0  0
    0.5230   -2.1730    0.0000 C   0  0  0  0  0  0  0  0  0  0  0  0
    1.3480   -2.1730    0.0000 C   0  0  0  0  0  0  0  0  0  0  0  0
    1.7605   -2.8875    0.0000 N   0  0  0  0  0  0  0  0  0  0  0  0
    2.5855   -2.8875    0.0000 C   0  0  0  0  0  0  0  0  0  0  0  0
    2.9980   -2.1730    0.0000 C   0  0  0  0  0  0  0  0  0  0  0  0
    3.8230   -2.1730    0.0000 C   0  0  0  0  0  0  0  0  0  0  0  0
    4.2355   -2.8875    0.0000 C   0  0  0  0  0  0  0  0  0  0  0  0
    3.8230   -3.6020    0.0000 C   0  0  0  0  0  0  0  0  0  0  0  0
    2.9980   -3.6020    0.0000 C   0  0  0  0  0  0  0  0  0  0  0  0
    5.0605   -2.8875    0.0000 S   0  0  0  0  0  0  0  0  0  0  0  0
    5.0605   -3.7125    0.0000 O   0  0  0  0  0  0  0  0  0  0  0  0
    5.0605   -2.0625    0.0000 O   0  0  0  0  0  0  0  0  0  0  0  0
    5.8855   -2.8875    0.0000 N   0  0  0  0  0  0  0  0  0  0  0  0
    6.2980   -3.6020    0.0000 C   0  0  0  0  0  0  0  0  0  0  0  0
    7.1230   -3.6020    0.0000 C   0  0  0  0  0  0  0  0  0  0  0  0
    6.2980   -2.1730    0.0000 C   0  0  0  0  0  0  0  0  0  0  0  0
    7.1230   -2.1730    0.0000 C   0  0  0  0  0  0  0  0  0  0  0  0
    7.5355   -1.4586    0.0000 O   0  0  0  0  0  0  0  0  0  0  0  0
    7.5355   -2.8875    0.0000 O   0  0  0  0  0  0  0  0  0  0  0  0
    1.7605   -1.4586    0.0000 C   0  0  0  0  0  0  0  0  0  0  0  0
    1.3480   -0.7441    0.0000 C   0  0  0  0  0  0  0  0  0  0  0  0
    1.7605   -0.0296    0.0000 C   0  0  0  0  0  0  0  0  0  0  0  0
    2.5855   -0.0296    0.0000 C   0  0  0  0  0  0  0  0  0  0  0  0
    2.9980    0.6849    0.0000 Br  0  0  0  0  0  0  0  0  0  0  0  0
    2.9980   -0.7441    0.0000 C   0  0  0  0  0  0  0  0  0  0  0  0
    2.5855   -1.4586    0.0000 C   0  0  0  0  0  0  0  0  0  0  0  0
    3.3392   -1.7941    0.0000 C   0  0  0  0  0  0  0  0  0  0  0  0
  1  2  1  0  0  0  0
  2  3  1  0  0  0  0
  3  4  1  0  0  0  0
  4  5  2  0  0  0  0
  4  6  1  0  0  0  0
  6  7  1  0  0  0  0
  7  8  1  0  0  0  0
  8  9  1  0  0  0  0
  9 10  2  0  0  0  0
 10 11  1  0  0  0  0
 11 12  2  0  0  0  0
 12 13  1  0  0  0  0
 13 14  2  0  0  0  0
  9 14  1  0  0  0  0
 12 15  1  0  0  0  0
 15 16  2  0  0  0  0
 15 17  2  0  0  0  0
 15 18  1  0  0  0  0
 18 19  1  0  0  0  0
 19 20  1  0  0  0  0
 18 21  1  0  0  0  0
 21 22  1  0  0  0  0
 22 23  1  0  0  0  0
 22 24  2  0  0  0  0
  7 25  1  0  0  0  0
 25 26  2  0  0  0  0
 26 27  1  0  0  0  0
 27 28  2  0  0  0  0
 28 29  1  0  0  0  0
 28 30  1  0  0  0  0
 30 31  2  0  0  0  0
 25 31  1  0  0  0  0
 31 32  1  0  0  0  0
M  END
> <ID>
CPD_1925

$$$$
CPD_1930
  Mrv1822 09091914012D          

 29 32  0  0  0  0            999 V2000
   -3.9418   -1.9915    0.0000 C   0  0  0  0  0  0  0  0  0  0  0  0
   -3.3584   -2.5749    0.0000 C   0  0  0  0  0  0  0  0  0  0  0  0
   -3.5719   -3.3718    0.0000 C   0  0  0  0  0  0  0  0  0  0  0  0
   -2.9886   -3.9551    0.0000 N   0  0  0  0  0  0  0  0  0  0  0  0
   -2.1917   -3.7416    0.0000 C   0  0  0  0  0  0  0  0  0  0  0  0
   -1.9782   -2.9447    0.0000 C   0  0  0  0  0  0  0  0  0  0  0  0
   -1.1813   -2.7312    0.0000 C   0  0  0  0  0  0  0  0  0  0  0  0
   -0.9678   -1.9343    0.0000 N   0  0  0  0  0  0  0  0  0  0  0  0
   -0.1709   -1.7208    0.0000 C   0  0  0  0  0  0  0  0  0  0  0  0
    0.4125   -2.3041    0.0000 C   0  0  0  0  0  0  0  0  0  0  0  0
    0.9959   -2.8875    0.0000 C   0  0  0  0  0  0  0  0  0  0  0  0
    0.4125   -3.4709    0.0000 O   0  0  0  0  0  0  0  0  0  0  0  0
   -0.1709   -2.8875    0.0000 C   0  0  0  0  0  0  0  0  0  0  0  0
    0.9959   -1.7208    0.0000 N   0  0  0  0  0  0  0  0  0  0  0  0
    0.7823   -0.9239    0.0000 C   0  0  0  0  0  0  0  0  0  0  0  0
   -0.0146   -0.7104    0.0000 C   0  0  0  0  0  0  0  0  0  0  0  0
   -0.5979   -1.2937    0.0000 C   0  0  0  0  0  0  0  0  0  0  0  0
   -1.3948   -1.0802    0.0000 C   0  0  0  0  0  0  0  0  0  0  0  0
   -1.6083   -0.2833    0.0000 C   0  0  0  0  0  0  0  0  0  0  0  0
   -1.0250    0.3001    0.0000 C   0  0  0  0  0  0  0  0  0  0  0  0
   -0.2281    0.0865    0.0000 C   0  0  0  0  0  0  0  0  0  0  0  0
    1.7928   -1.9343    0.0000 C   0  0  0  0  0  0  0  0  0  0  0  0
    2.3761   -1.3509    0.0000 C   0  0  0  0  0  0  0  0  0  0  0  0
    2.1626   -0.5540    0.0000 C   0  0  0  0  0  0  0  0  0  0  0  0
    2.7460    0.0293    0.0000 C   0  0  0  0  0  0  0  0  0  0  0  0
    3.5428   -0.1842    0.0000 C   0  0  0  0  0  0  0  0  0  0  0  0
    3.7564   -0.9811    0.0000 C   0  0  0  0  0  0  0  0  0  0  0  0
    3.1730   -1.5645    0.0000 C   0  0  0  0  0  0  0  0  0  0  0  0
   -2.5615   -2.3614    0.0000 C   0  0  0  0  0  0  0  0  0  0  0  0
  1  2  1  0  0  0  0
  2  3  2  0  0  0  0
  3  4  1  0  0  0  0
  4  5  2  0  0  0  0
  5  6  1  0  0  0  0
  6  7  1  0  0  0  0
  7  8  1  0  0  0  0
  8  9  1  0  0  0  0
  9 10  1  0  0  0  0
 10 11  1  0  0  0  0
 11 12  1  0  0  0  0
 12 13  1  0  0  0  0
 10 13  1  0  0  0  0
 10 14  1  0  0  0  0
 14 15  1  0  0  0  0
 15 16  1  0  0  0  0
 16 17  2  0  0  0  0
 17 18  1  0  0  0  0
 18 19  2  0  0  0  0
 19 20  1  0  0  0  0
 20 21  2  0  0  0  0
 16 21  1  0  0  0  0
 14 22  1  0  0  0  0
 22 23  1  0  0  0  0
 23 24  2  0  0  0  0
 24 25  1  0  0  0  0
 25 26  2  0  0  0  0
 26 27  1  0  0  0  0
 27 28  2  0  0  0  0
 23 28  1  0  0  0  0
  6 29  2  0  0  0  0
  2 29  1  0  0  0  0
M  END
> <ID>
CPD_1930

$$$$
CPD_1935
  Mrv1822 09091914012D          

 24 26  0  0  0  0            999 V2000
    5.0013   -0.4125    0.0000 N   0  0  0  0  0  0  0  0  0  0  0  0
    5.0013   -1.2375    0.0000 C   0  0  0  0  0  0  0  0  0  0  0  0
    5.7158   -1.6500    0.0000 C   0  0  0  0  0  0  0  0  0  0  0  0
    5.7158   -2.4750    0.0000 C   0  0  0  0  0  0  0  0  0  0  0  0
    5.0013   -2.8875    0.0000 C   0  0  0  0  0  0  0  0  0  0  0  0
    5.0013   -3.7125    0.0000 O   0  0  0  0  0  0  0  0  0  0  0  0
    5.7158   -4.1250    0.0000 C   0  0  0  0  0  0  0  0  0  0  0  0
    6.4302   -3.7125    0.0000 C   0  0  0  0  0  0  0  0  0  0  0  0
    7.1447   -4.1250    0.0000 C   0  0  0  0  0  0  0  0  0  0  0  0
    7.1447   -4.9500    0.0000 C   0  0  0  0  0  0  0  0  0  0  0  0
    6.4302   -5.3625    0.0000 C   0  0  0  0  0  0  0  0  0  0  0  0
    6.4302   -6.1875    0.0000 N   0  0  0  0  0  0  0  0  0  0  0  0
    5.7158   -6.6000    0.0000 C   0  0  0  0  0  0  0  0  0  0  0  0
    5.7158   -7.4250    0.0000 C   0  0  0  0  0  0  0  0  0  0  0  0
    6.4302   -7.8375    0.0000 F   0  0  0  0  0  0  0  0  0  0  0  0
    5.0013   -7.8375    0.0000 C   0  0  0  0  0  0  0  0  0  0  0  0
    4.2868   -7.4250    0.0000 C   0  0  0  0  0  0  0  0  0  0  0  0
    3.5724   -7.8375    0.0000 O   0  0  0  0  0  0  0  0  0  0  0  0
    4.2868   -6.6000    0.0000 C   0  0  0  0  0  0  0  0  0  0  0  0
    3.5724   -6.1875    0.0000 F   0  0  0  0  0  0  0  0  0  0  0  0
    5.0013   -6.1875    0.0000 C   0  0  0  0  0  0  0  0  0  0  0  0
    5.7158   -4.9500    0.0000 C   0  0  0  0  0  0  0  0  0  0  0  0
    4.2868   -2.4750    0.0000 C   0  0  0  0  0  0  0  0  0  0  0  0
    4.2868   -1.6500    0.0000 C   0  0  0  0  0  0  0  0  0  0  0  0
  1  2  1  0  0  0  0
  2  3  2  0  0  0  0
  3  4  1  0  0  0  0
  4  5  2  0  0  0  0
  5  6  1  0  0  0  0
  6  7  1  0  0  0  0
  7  8  2  0  0  0  0
  8  9  1  0  0  0  0
  9 10  2  0  0  0  0
 10 11  1  0  0  0  0
 11 12  1  0  0  0  0
 12 13  1  0  0  0  0
 13 14  2  0  0  0  0
 14 15  1  0  0  0  0
 14 16  1  0  0  0  0
 16 17  2  0  0  0  0
 17 18  1  0  0  0  0
 17 19  1  0  0  0  0
 19 20  1  0  0  0  0
 19 21  2  0  0  0  0
 13 21  1  0  0  0  0
 11 22  2  0  0  0  0
  7 22  1  0  0  0  0
  5 23  1  0  0  0  0
 23 24  2  0  0  0  0
  2 24  1  0  0  0  0
M  END
> <ID>
CPD_1935

$$$$
CPD_1940
  Mrv1822 09091914012D          

 19 20  0  0  0  0            999 V2000
    2.1434   -0.4125    0.0000 O   0  0  0  0  0  0  0  0  0  0  0  0
    2.1434   -1.2375    0.0000 C   0  0  0  0  0  0  0  0  0  0  0  0
    2.8579   -1.6500    0.0000 C   0  0  0  0  0  0  0  0  0  0  0  0
    2.8579   -2.4750    0.0000 C   0  0  0  0  0  0  0  0  0  0  0  0
    3.5724   -2.8875    0.0000 F   0  0  0  0  0  0  0  0  0  0  0  0
    2.1434   -2.8875    0.0000 C   0  0  0  0  0  0  0  0  0  0  0  0
    2.1434   -3.7125    0.0000 N   0  0  0  0  0  0  0  0  0  0  0  0
    1.4289   -4.1250    0.0000 C   0  0  0  0  0  0  0  0  0  0  0  0
    1.4289   -4.9500    0.0000 C   0  0  0  0  0  0  0  0  0  0  0  0
    0.7145   -5.3625    0.0000 C   0  0  0  0  0  0  0  0  0  0  0  0
   -0.0000   -4.9500    0.0000 C   0  0  0  0  0  0  0  0  0  0  0  0
   -0.0000   -4.1250    0.0000 C   0  0  0  0  0  0  0  0  0  0  0  0
    0.7145   -3.7125    0.0000 C   0  0  0  0  0  0  0  0  0  0  0  0
   -0.7145   -5.3625    0.0000 Se  0  0  0  0  0  0  0  0  0  0  0  0
   -0.7145   -6.1875    0.0000 O   0  0  0  0  0  0  0  0  0  0  0  0
   -1.4289   -4.9500    0.0000 O   0  0  0  0  0  0  0  0  0  0  0  0
    1.4289   -2.4750    0.0000 C   0  0  0  0  0  0  0  0  0  0  0  0
    1.4289   -1.6500    0.0000 C   0  0  0  0  0  0  0  0  0  0  0  0
    0.7145   -1.2375    0.0000 F   0  0  0  0  0  0  0  0  0  0  0  0
  1  2  1  0  0  0  0
  2  3  2  0  0  0  0
  3  4  1  0  0  0  0
  4  5  1  0  0  0  0
  4  6  2  0  0  0  0
  6  7  1  0  0  0  0
  7  8  1  0  0  0  0
  8  9  2  0  0  0  0
  9 10  1  0  0  0  0
 10 11  2  0  0  0  0
 11 12  1  0  0  0  0
 12 13  2  0  0  0  0
  8 13  1  0  0  0  0
 11 14  1  0  0  0  0
 14 15  1  0  0  0  0
 14 16  2  0  0  0  0
  6 17  1  0  0  0  0
 17 18  2  0  0  0  0
  2 18  1  0  0  0  0
 18 19  1  0  0  0  0
M  END
> <ID>
CPD_1940

$$$$
CPD_1945
  Mrv1822 09091914012D          

 27 30  0  0  0  0            999 V2000
    0.8838   -2.1500    0.0000 C   0  0  0  0  0  0  0  0  0  0  0  0
    1.1387   -1.3654    0.0000 N   0  0  0  0  0  0  0  0  0  0  0  0
    0.6538   -0.6979    0.0000 C   0  0  0  0  0  0  0  0  0  0  0  0
   -0.1712   -0.6979    0.0000 N   0  0  0  0  0  0  0  0  0  0  0  0
   -0.5837   -1.4124    0.0000 C   0  0  0  0  0  0  0  0  0  0  0  0
   -0.1712   -2.1269    0.0000 N   0  0  0  0  0  0  0  0  0  0  0  0
   -0.5837   -2.8414    0.0000 C   0  0  0  0  0  0  0  0  0  0  0  0
   -1.4087   -2.8414    0.0000 C   0  0  0  0  0  0  0  0  0  0  0  0
   -1.8212   -2.1269    0.0000 N   0  0  0  0  0  0  0  0  0  0  0  0
   -1.4087   -1.4124    0.0000 C   0  0  0  0  0  0  0  0  0  0  0  0
   -1.8212   -0.6979    0.0000 N   0  0  0  0  0  0  0  0  0  0  0  0
   -2.6462   -0.6979    0.0000 C   0  0  0  0  0  0  0  0  0  0  0  0
   -3.0587    0.0165    0.0000 C   0  0  0  0  0  0  0  0  0  0  0  0
   -2.6462    0.7310    0.0000 N   0  0  0  0  0  0  0  0  0  0  0  0
   -1.8212    0.7310    0.0000 C   0  0  0  0  0  0  0  0  0  0  0  0
   -1.4087    0.0165    0.0000 C   0  0  0  0  0  0  0  0  0  0  0  0
    1.1387   -0.0305    0.0000 N   0  0  0  0  0  0  0  0  0  0  0  0
    1.9233   -0.2854    0.0000 C   0  0  0  0  0  0  0  0  0  0  0  0
    2.6378    0.1271    0.0000 C   0  0  0  0  0  0  0  0  0  0  0  0
    3.3523   -0.2854    0.0000 C   0  0  0  0  0  0  0  0  0  0  0  0
    3.3523   -1.1104    0.0000 C   0  0  0  0  0  0  0  0  0  0  0  0
    2.6378   -1.5229    0.0000 C   0  0  0  0  0  0  0  0  0  0  0  0
    1.9233   -1.1104    0.0000 C   0  0  0  0  0  0  0  0  0  0  0  0
    4.0668    0.1271    0.0000 C   0  0  0  0  0  0  0  0  0  0  0  0
    4.7812    0.5396    0.0000 F   0  0  0  0  0  0  0  0  0  0  0  0
    4.4793   -0.5874    0.0000 F   0  0  0  0  0  0  0  0  0  0  0  0
    3.6543    0.8415    0.0000 F   0  0  0  0  0  0  0  0  0  0  0  0
  1  2  1  0  0  0  0
  2  3  1  0  0  0  0
  3  4  1  0  0  0  0
  4  5  1  0  0  0  0
  5  6  2  0  0  0  0
  6  7  1  0  0  0  0
  7  8  2  0  0  0  0
  8  9  1  0  0  0  0
  9 10  2  0  0  0  0
  5 10  1  0  0  0  0
 10 11  1  0  0  0  0
 11 12  1  0  0  0  0
 12 13  1  0  0  0  0
 13 14  1  0  0  0  0
 14 15  1  0  0  0  0
 15 16  1  0  0  0  0
 11 16  1  0  0  0  0
  3 17  2  0  0  0  0
 17 18  1  0  0  0  0
 18 19  2  0  0  0  0
 19 20  1  0  0  0  0
 20 21  2  0  0  0  0
 21 22  1  0  0  0  0
 22 23  2  0  0  0  0
  2 23  1  0  0  0  0
 18 23  1  0  0  0  0
 20 24  1  0  0  0  0
 24 25  1  0  0  0  0
 24 26  1  0  0  0  0
 24 27  1  0  0  0  0
M  END
> <ID>
CPD_1945

$$$$
CPD_1950
  Mrv1822 09091914012D          

 25 27  0  0  0  0            999 V2000
    3.3163   -4.2027    0.0000 C   0  0  0  0  0  0  0  0  0  0  0  0
    2.5093   -4.0312    0.0000 O   0  0  0  0  0  0  0  0  0  0  0  0
    2.2544   -3.2466    0.0000 C   0  0  0  0  0  0  0  0  0  0  0  0
    1.4474   -3.0751    0.0000 C   0  0  0  0  0  0  0  0  0  0  0  0
    1.1925   -2.2904    0.0000 C   0  0  0  0  0  0  0  0  0  0  0  0
    0.3855   -2.1189    0.0000 F   0  0  0  0  0  0  0  0  0  0  0  0
    1.7445   -1.6774    0.0000 C   0  0  0  0  0  0  0  0  0  0  0  0
    2.5515   -1.8489    0.0000 C   0  0  0  0  0  0  0  0  0  0  0  0
    2.8064   -2.6335    0.0000 C   0  0  0  0  0  0  0  0  0  0  0  0
    1.4896   -0.8927    0.0000 C   0  0  0  0  0  0  0  0  0  0  0  0
    2.0416   -0.2796    0.0000 C   0  0  0  0  0  0  0  0  0  0  0  0
    0.6826   -0.7212    0.0000 N   0  0  0  0  0  0  0  0  0  0  0  0
    0.4277    0.0634    0.0000 C   0  0  0  0  0  0  0  0  0  0  0  0
   -0.3793    0.2349    0.0000 C   0  0  0  0  0  0  0  0  0  0  0  0
   -0.6342    1.0196    0.0000 C   0  0  0  0  0  0  0  0  0  0  0  0
   -0.0822    1.6327    0.0000 C   0  0  0  0  0  0  0  0  0  0  0  0
    0.7248    1.4611    0.0000 C   0  0  0  0  0  0  0  0  0  0  0  0
    0.9797    0.6765    0.0000 C   0  0  0  0  0  0  0  0  0  0  0  0
   -0.9313   -0.3782    0.0000 C   0  0  0  0  0  0  0  0  0  0  0  0
   -1.4834    0.2349    0.0000 C   0  0  0  0  0  0  0  0  0  0  0  0
   -2.2903    0.0634    0.0000 N   0  0  0  0  0  0  0  0  0  0  0  0
   -0.2639   -0.8631    0.0000 C   0  0  0  0  0  0  0  0  0  0  0  0
   -0.5188   -1.6477    0.0000 C   0  0  0  0  0  0  0  0  0  0  0  0
   -1.3438   -1.6477    0.0000 C   0  0  0  0  0  0  0  0  0  0  0  0
   -1.5988   -0.8631    0.0000 C   0  0  0  0  0  0  0  0  0  0  0  0
  1  2  1  0  0  0  0
  2  3  1  0  0  0  0
  3  4  2  0  0  0  0
  4  5  1  0  0  0  0
  5  6  1  0  0  0  0
  5  7  2  0  0  0  0
  7  8  1  0  0  0  0
  8  9  2  0  0  0  0
  3  9  1  0  0  0  0
  7 10  1  0  0  0  0
 10 11  1  0  0  0  0
 10 12  1  0  0  0  0
 12 13  1  0  0  0  0
 13 14  2  0  0  0  0
 14 15  1  0  0  0  0
 15 16  2  0  0  0  0
 16 17  1  0  0  0  0
 17 18  2  0  0  0  0
 13 18  1  0  0  0  0
 14 19  1  0  0  0  0
 19 20  1  0  0  0  0
 20 21  1  0  0  0  0
 19 22  1  0  0  0  0
 22 23  1  0  0  0  0
 23 24  1  0  0  0  0
 24 25  1  0  0  0  0
 19 25  1  0  0  0  0
M  END
> <ID>
CPD_1950

$$$$
CPD_1955
  Mrv1822 09091914012D          

 34 38  0  0  0  0            999 V2000
    5.2426   -1.1694    0.0000 C   0  0  0  0  0  0  0  0  0  0  0  0
    5.2426   -1.9944    0.0000 O   0  0  0  0  0  0  0  0  0  0  0  0
    4.5281   -2.4069    0.0000 C   0  0  0  0  0  0  0  0  0  0  0  0
    4.5281   -3.2319    0.0000 C   0  0  0  0  0  0  0  0  0  0  0  0
    3.8137   -3.6444    0.0000 C   0  0  0  0  0  0  0  0  0  0  0  0
    3.8137   -4.4694    0.0000 F   0  0  0  0  0  0  0  0  0  0  0  0
    3.0992   -3.2319    0.0000 C   0  0  0  0  0  0  0  0  0  0  0  0
    3.0992   -2.4069    0.0000 C   0  0  0  0  0  0  0  0  0  0  0  0
    3.8137   -1.9944    0.0000 C   0  0  0  0  0  0  0  0  0  0  0  0
    2.3847   -3.6444    0.0000 C   0  0  0  0  0  0  0  0  0  0  0  0
    2.3847   -4.4694    0.0000 C   0  0  0  0  0  0  0  0  0  0  0  0
    1.6702   -3.2319    0.0000 N   0  0  0  0  0  0  0  0  0  0  0  0
    0.9558   -3.6444    0.0000 C   0  0  0  0  0  0  0  0  0  0  0  0
    0.9558   -4.4694    0.0000 C   0  0  0  0  0  0  0  0  0  0  0  0
    0.2413   -4.8819    0.0000 C   0  0  0  0  0  0  0  0  0  0  0  0
   -0.4732   -4.4694    0.0000 C   0  0  0  0  0  0  0  0  0  0  0  0
   -1.2578   -4.7243    0.0000 N   0  0  0  0  0  0  0  0  0  0  0  0
   -1.7427   -4.0569    0.0000 C   0  0  0  0  0  0  0  0  0  0  0  0
   -2.5677   -4.0569    0.0000 C   0  0  0  0  0  0  0  0  0  0  0  0
   -2.9802   -4.7714    0.0000 C   0  0  0  0  0  0  0  0  0  0  0  0
   -3.8052   -4.7714    0.0000 N   0  0  0  0  0  0  0  0  0  0  0  0
   -4.2901   -4.1039    0.0000 C   0  0  0  0  0  0  0  0  0  0  0  0
   -4.0352   -3.3193    0.0000 O   0  0  0  0  0  0  0  0  0  0  0  0
   -5.0748   -4.3589    0.0000 C   0  0  0  0  0  0  0  0  0  0  0  0
   -5.0748   -5.1839    0.0000 C   0  0  0  0  0  0  0  0  0  0  0  0
   -5.7892   -5.5964    0.0000 C   0  0  0  0  0  0  0  0  0  0  0  0
   -6.5037   -5.1839    0.0000 C   0  0  0  0  0  0  0  0  0  0  0  0
   -6.5037   -4.3589    0.0000 C   0  0  0  0  0  0  0  0  0  0  0  0
   -5.7892   -3.9464    0.0000 C   0  0  0  0  0  0  0  0  0  0  0  0
   -4.2901   -5.4388    0.0000 C   0  0  0  0  0  0  0  0  0  0  0  0
   -4.0352   -6.2234    0.0000 O   0  0  0  0  0  0  0  0  0  0  0  0
   -1.2578   -3.3894    0.0000 O   0  0  0  0  0  0  0  0  0  0  0  0
   -0.4732   -3.6444    0.0000 C   0  0  0  0  0  0  0  0  0  0  0  0
    0.2413   -3.2319    0.0000 C   0  0  0  0  0  0  0  0  0  0  0  0
  1  2  1  0  0  0  0
  2  3  1  0  0  0  0
  3  4  2  0  0  0  0
  4  5  1  0  0  0  0
  5  6  1  0  0  0  0
  5  7  2  0  0  0  0
  7  8  1  0  0  0  0
  8  9  2  0  0  0  0
  3  9  1  0  0  0  0
  7 10  1  0  0  0  0
 10 11  1  0  0  0  0
 10 12  1  0  0  0  0
 12 13  1  0  0  0  0
 13 14  2  0  0  0  0
 14 15  1  0  0  0  0
 15 16  2  0  0  0  0
 16 17  1  0  0  0  0
 17 18  2  0  0  0  0
 18 19  1  0  0  0  0
 19 20  1  0  0  0  0
 20 21  1  0  0  0  0
 21 22  1  0  0  0  0
 22 23  2  0  0  0  0
 22 24  1  0  0  0  0
 24 25  2  0  0  0  0
 25 26  1  0  0  0  0
 26 27  2  0  0  0  0
 27 28  1  0  0  0  0
 28 29  2  0  0  0  0
 24 29  1  0  0  0  0
 25 30  1  0  0  0  0
 21 30  1  0  0  0  0
 30 31  2  0  0  0  0
 18 32  1  0  0  0  0
 32 33  1  0  0  0  0
 16 33  1  0  0  0  0
 33 34  2  0  0  0  0
 13 34  1  0  0  0  0
M  END
> <ID>
CPD_1955

$$$$
CPD_1960
  Mrv1822 09091914012D          

 26 28  0  0  0  0            999 V2000
    5.0013   -1.2375    0.0000 C   0  0  0  0  0  0  0  0  0  0  0  0
    4.2868   -1.6500    0.0000 O   0  0  0  0  0  0  0  0  0  0  0  0
    3.5724   -1.2375    0.0000 C   0  0  0  0  0  0  0  0  0  0  0  0
    2.8579   -1.6500    0.0000 C   0  0  0  0  0  0  0  0  0  0  0  0
    2.1434   -1.2375    0.0000 C   0  0  0  0  0  0  0  0  0  0  0  0
    1.4289   -1.6500    0.0000 O   0  0  0  0  0  0  0  0  0  0  0  0
    1.4289   -2.4750    0.0000 C   0  0  0  0  0  0  0  0  0  0  0  0
    2.0964   -2.9599    0.0000 N   0  0  0  0  0  0  0  0  0  0  0  0
    1.8414   -3.7445    0.0000 N   0  0  0  0  0  0  0  0  0  0  0  0
    1.0164   -3.7445    0.0000 C   0  0  0  0  0  0  0  0  0  0  0  0
    0.5315   -4.4120    0.0000 N   0  0  0  0  0  0  0  0  0  0  0  0
    0.8671   -5.1657    0.0000 C   0  0  0  0  0  0  0  0  0  0  0  0
    1.6876   -5.2519    0.0000 C   0  0  0  0  0  0  0  0  0  0  0  0
    0.3822   -5.8331    0.0000 C   0  0  0  0  0  0  0  0  0  0  0  0
    0.7177   -6.5868    0.0000 C   0  0  0  0  0  0  0  0  0  0  0  0
    1.5382   -6.6730    0.0000 F   0  0  0  0  0  0  0  0  0  0  0  0
    0.2328   -7.2542    0.0000 C   0  0  0  0  0  0  0  0  0  0  0  0
   -0.5877   -7.1680    0.0000 C   0  0  0  0  0  0  0  0  0  0  0  0
   -1.0726   -7.8354    0.0000 O   0  0  0  0  0  0  0  0  0  0  0  0
   -0.7371   -8.5891    0.0000 C   0  0  0  0  0  0  0  0  0  0  0  0
   -0.9232   -6.4143    0.0000 C   0  0  0  0  0  0  0  0  0  0  0  0
   -0.4383   -5.7469    0.0000 C   0  0  0  0  0  0  0  0  0  0  0  0
    0.7615   -2.9599    0.0000 S   0  0  0  0  0  0  0  0  0  0  0  0
    2.1434   -0.4125    0.0000 C   0  0  0  0  0  0  0  0  0  0  0  0
    2.8579    0.0000    0.0000 C   0  0  0  0  0  0  0  0  0  0  0  0
    3.5724   -0.4125    0.0000 C   0  0  0  0  0  0  0  0  0  0  0  0
  1  2  1  0  0  0  0
  2  3  1  0  0  0  0
  3  4  2  0  0  0  0
  4  5  1  0  0  0  0
  5  6  1  0  0  0  0
  6  7  1  0  0  0  0
  7  8  2  0  0  0  0
  8  9  1  0  0  0  0
  9 10  2  0  0  0  0
 10 11  1  0  0  0  0
 11 12  1  0  0  0  0
 12 13  1  0  0  0  0
 12 14  1  0  0  0  0
 14 15  2  0  0  0  0
 15 16  1  0  0  0  0
 15 17  1  0  0  0  0
 17 18  2  0  0  0  0
 18 19  1  0  0  0  0
 19 20  1  0  0  0  0
 18 21  1  0  0  0  0
 21 22  2  0  0  0  0
 14 22  1  0  0  0  0
 10 23  1  0  0  0  0
  7 23  1  0  0  0  0
  5 24  2  0  0  0  0
 24 25  1  0  0  0  0
 25 26  2  0  0  0  0
  3 26  1  0  0  0  0
M  END
> <ID>
CPD_1960

$$$$
CPD_1965
  Mrv1822 09091914012D          

 26 27  0  0  0  0            999 V2000
   -2.1434   -1.2375    0.0000 C   0  0  0  0  0  0  0  0  0  0  0  0
   -1.4289   -1.6500    0.0000 O   0  0  0  0  0  0  0  0  0  0  0  0
   -1.4289   -2.4750    0.0000 C   0  0  0  0  0  0  0  0  0  0  0  0
   -0.7145   -2.8875    0.0000 C   0  0  0  0  0  0  0  0  0  0  0  0
   -0.7145   -3.7125    0.0000 C   0  0  0  0  0  0  0  0  0  0  0  0
    0.0000   -4.1250    0.0000 F   0  0  0  0  0  0  0  0  0  0  0  0
   -1.4289   -4.1250    0.0000 C   0  0  0  0  0  0  0  0  0  0  0  0
   -2.1434   -3.7125    0.0000 C   0  0  0  0  0  0  0  0  0  0  0  0
   -2.1434   -2.8875    0.0000 C   0  0  0  0  0  0  0  0  0  0  0  0
   -1.4289   -4.9500    0.0000 C   0  0  0  0  0  0  0  0  0  0  0  0
   -2.1434   -5.3625    0.0000 C   0  0  0  0  0  0  0  0  0  0  0  0
   -0.7145   -5.3625    0.0000 N   0  0  0  0  0  0  0  0  0  0  0  0
   -0.7145   -6.1875    0.0000 C   0  0  0  0  0  0  0  0  0  0  0  0
   -0.0000   -6.6000    0.0000 C   0  0  0  0  0  0  0  0  0  0  0  0
    0.7145   -6.1875    0.0000 C   0  0  0  0  0  0  0  0  0  0  0  0
    0.7145   -5.3625    0.0000 F   0  0  0  0  0  0  0  0  0  0  0  0
    1.4289   -6.6000    0.0000 C   0  0  0  0  0  0  0  0  0  0  0  0
    1.4289   -7.4250    0.0000 C   0  0  0  0  0  0  0  0  0  0  0  0
    0.7145   -7.8375    0.0000 C   0  0  0  0  0  0  0  0  0  0  0  0
    0.7145   -8.6625    0.0000 O   0  0  0  0  0  0  0  0  0  0  0  0
    1.4289   -9.0750    0.0000 C   0  0  0  0  0  0  0  0  0  0  0  0
   -0.0000   -7.4250    0.0000 C   0  0  0  0  0  0  0  0  0  0  0  0
    2.1434   -6.1875    0.0000 C   0  0  0  0  0  0  0  0  0  0  0  0
    2.8579   -5.7750    0.0000 F   0  0  0  0  0  0  0  0  0  0  0  0
    2.5559   -6.9020    0.0000 F   0  0  0  0  0  0  0  0  0  0  0  0
    1.7309   -5.4730    0.0000 F   0  0  0  0  0  0  0  0  0  0  0  0
  1  2  1  0  0  0  0
  2  3  1  0  0  0  0
  3  4  2  0  0  0  0
  4  5  1  0  0  0  0
  5  6  1  0  0  0  0
  5  7  2  0  0  0  0
  7  8  1  0  0  0  0
  8  9  2  0  0  0  0
  3  9  1  0  0  0  0
  7 10  1  0  0  0  0
 10 11  1  0  0  0  0
 10 12  1  0  0  0  0
 12 13  1  0  0  0  0
 13 14  1  0  0  0  0
 14 15  2  0  0  0  0
 15 16  1  0  0  0  0
 15 17  1  0  0  0  0
 17 18  2  0  0  0  0
 18 19  1  0  0  0  0
 19 20  1  0  0  0  0
 20 21  1  0  0  0  0
 19 22  2  0  0  0  0
 14 22  1  0  0  0  0
 17 23  1  0  0  0  0
 23 24  1  0  0  0  0
 23 25  1  0  0  0  0
 23 26  1  0  0  0  0
M  END
> <ID>
CPD_1965

$$$$
CPD_1970
  Mrv1822 09091914012D          

 28 31  0  0  0  0            999 V2000
   -2.1434   -1.2375    0.0000 C   0  0  0  0  0  0  0  0  0  0  0  0
   -1.4289   -1.6500    0.0000 O   0  0  0  0  0  0  0  0  0  0  0  0
   -0.7145   -1.2375    0.0000 C   0  0  0  0  0  0  0  0  0  0  0  0
    0.0000   -1.6500    0.0000 C   0  0  0  0  0  0  0  0  0  0  0  0
    0.7145   -1.2375    0.0000 C   0  0  0  0  0  0  0  0  0  0  0  0
    0.7145   -0.4125    0.0000 C   0  0  0  0  0  0  0  0  0  0  0  0
    0.0000   -0.0000    0.0000 C   0  0  0  0  0  0  0  0  0  0  0  0
   -0.7145   -0.4125    0.0000 C   0  0  0  0  0  0  0  0  0  0  0  0
   -1.4289    0.0000    0.0000 O   0  0  0  0  0  0  0  0  0  0  0  0
   -2.1434   -0.4125    0.0000 C   0  0  0  0  0  0  0  0  0  0  0  0
    1.4289   -0.0000    0.0000 C   0  0  0  0  0  0  0  0  0  0  0  0
    1.4289    0.8250    0.0000 O   0  0  0  0  0  0  0  0  0  0  0  0
    2.1434   -0.4125    0.0000 N   0  0  0  0  0  0  0  0  0  0  0  0
    2.1434   -1.2375    0.0000 C   0  0  0  0  0  0  0  0  0  0  0  0
    2.8579   -1.6500    0.0000 O   0  0  0  0  0  0  0  0  0  0  0  0
    1.4289   -1.6500    0.0000 N   0  0  0  0  0  0  0  0  0  0  0  0
    2.8579   -0.0000    0.0000 C   0  0  0  0  0  0  0  0  0  0  0  0
    2.8579    0.8250    0.0000 C   0  0  0  0  0  0  0  0  0  0  0  0
    3.5724    1.2375    0.0000 C   0  0  0  0  0  0  0  0  0  0  0  0
    3.5724    2.0625    0.0000 N   0  0  0  0  0  0  0  0  0  0  0  0
    4.2868    2.4750    0.0000 C   0  0  0  0  0  0  0  0  0  0  0  0
    4.3731    3.2955    0.0000 N   0  0  0  0  0  0  0  0  0  0  0  0
    5.1800    3.4670    0.0000 C   0  0  0  0  0  0  0  0  0  0  0  0
    5.5925    2.7525    0.0000 N   0  0  0  0  0  0  0  0  0  0  0  0
    5.0405    2.1394    0.0000 S   0  0  0  0  0  0  0  0  0  0  0  0
    4.2868    0.8250    0.0000 C   0  0  0  0  0  0  0  0  0  0  0  0
    4.2868   -0.0000    0.0000 C   0  0  0  0  0  0  0  0  0  0  0  0
    3.5724   -0.4125    0.0000 C   0  0  0  0  0  0  0  0  0  0  0  0
  1  2  1  0  0  0  0
  2  3  1  0  0  0  0
  3  4  2  0  0  0  0
  4  5  1  0  0  0  0
  5  6  2  0  0  0  0
  6  7  1  0  0  0  0
  7  8  2  0  0  0  0
  3  8  1  0  0  0  0
  8  9  1  0  0  0  0
  9 10  1  0  0  0  0
  6 11  1  0  0  0  0
 11 12  2  0  0  0  0
 11 13  1  0  0  0  0
 13 14  1  0  0  0  0
 14 15  2  0  0  0  0
 14 16  1  0  0  0  0
  5 16  1  0  0  0  0
 13 17  1  0  0  0  0
 17 18  2  0  0  0  0
 18 19  1  0  0  0  0
 19 20  1  0  0  0  0
 20 21  1  0  0  0  0
 21 22  2  0  0  0  0
 22 23  1  0  0  0  0
 23 24  2  0  0  0  0
 24 25  1  0  0  0  0
 21 25  1  0  0  0  0
 19 26  2  0  0  0  0
 26 27  1  0  0  0  0
 27 28  2  0  0  0  0
 17 28  1  0  0  0  0
M  END
> <ID>
CPD_1970

$$$$
CPD_1975
  Mrv1822 09091914012D          

 25 27  0  0  0  0            999 V2000
    0.1067   10.5402    0.0000 C   0  0  0  0  0  0  0  0  0  0  0  0
    0.1067    9.7152    0.0000 C   0  0  0  0  0  0  0  0  0  0  0  0
    0.8212    9.3027    0.0000 O   0  0  0  0  0  0  0  0  0  0  0  0
    0.8212    8.4777    0.0000 C   0  0  0  0  0  0  0  0  0  0  0  0
    0.1067    8.0652    0.0000 O   0  0  0  0  0  0  0  0  0  0  0  0
    1.5356    8.0652    0.0000 C   0  0  0  0  0  0  0  0  0  0  0  0
    2.2501    8.4777    0.0000 C   0  0  0  0  0  0  0  0  0  0  0  0
    2.9646    8.0652    0.0000 C   0  0  0  0  0  0  0  0  0  0  0  0
    2.9646    7.2402    0.0000 C   0  0  0  0  0  0  0  0  0  0  0  0
    2.2501    6.8277    0.0000 N   0  0  0  0  0  0  0  0  0  0  0  0
    1.5356    7.2402    0.0000 C   0  0  0  0  0  0  0  0  0  0  0  0
    2.2501    6.0027    0.0000 C   0  0  0  0  0  0  0  0  0  0  0  0
    2.9646    5.5902    0.0000 O   0  0  0  0  0  0  0  0  0  0  0  0
    1.5356    5.5902    0.0000 C   0  0  0  0  0  0  0  0  0  0  0  0
    1.5356    4.7652    0.0000 C   0  0  0  0  0  0  0  0  0  0  0  0
    0.8212    4.3527    0.0000 C   0  0  0  0  0  0  0  0  0  0  0  0
    0.1067    4.7652    0.0000 C   0  0  0  0  0  0  0  0  0  0  0  0
   -0.6078    4.3527    0.0000 N   0  0  0  0  0  0  0  0  0  0  0  0
   -0.6078    3.5277    0.0000 C   0  0  0  0  0  0  0  0  0  0  0  0
    0.0597    3.0428    0.0000 N   0  0  0  0  0  0  0  0  0  0  0  0
   -0.1953    2.2581    0.0000 C   0  0  0  0  0  0  0  0  0  0  0  0
   -1.0203    2.2581    0.0000 N   0  0  0  0  0  0  0  0  0  0  0  0
   -1.2752    3.0428    0.0000 S   0  0  0  0  0  0  0  0  0  0  0  0
    0.1067    5.5902    0.0000 C   0  0  0  0  0  0  0  0  0  0  0  0
    0.8212    6.0027    0.0000 C   0  0  0  0  0  0  0  0  0  0  0  0
  1  2  1  0  0  0  0
  2  3  1  0  0  0  0
  3  4  1  0  0  0  0
  4  5  2  0  0  0  0
  4  6  1  0  0  0  0
  6  7  1  0  0  0  0
  7  8  1  0  0  0  0
  8  9  1  0  0  0  0
  9 10  1  0  0  0  0
 10 11  1  0  0  0  0
  6 11  1  0  0  0  0
 10 12  1  0  0  0  0
 12 13  2  0  0  0  0
 12 14  1  0  0  0  0
 14 15  2  0  0  0  0
 15 16  1  0  0  0  0
 16 17  2  0  0  0  0
 17 18  1  0  0  0  0
 18 19  1  0  0  0  0
 19 20  2  0  0  0  0
 20 21  1  0  0  0  0
 21 22  2  0  0  0  0
 22 23  1  0  0  0  0
 19 23  1  0  0  0  0
 17 24  1  0  0  0  0
 24 25  2  0  0  0  0
 14 25  1  0  0  0  0
M  END
> <ID>
CPD_1975

$$$$
CPD_1980
  Mrv1822 09091914012D          

 22 23  0  0  0  0            999 V2000
   -1.4289   -4.1250    0.0000 C   0  0  0  0  0  0  0  0  0  0  0  0
   -0.7145   -3.7125    0.0000 O   0  0  0  0  0  0  0  0  0  0  0  0
   -0.7145   -2.8875    0.0000 C   0  0  0  0  0  0  0  0  0  0  0  0
   -1.4289   -2.4750    0.0000 C   0  0  0  0  0  0  0  0  0  0  0  0
   -1.4289   -1.6500    0.0000 C   0  0  0  0  0  0  0  0  0  0  0  0
   -0.7145   -1.2375    0.0000 C   0  0  0  0  0  0  0  0  0  0  0  0
    0.0000   -1.6500    0.0000 C   0  0  0  0  0  0  0  0  0  0  0  0
    0.7145   -1.2375    0.0000 F   0  0  0  0  0  0  0  0  0  0  0  0
    0.0000   -2.4750    0.0000 C   0  0  0  0  0  0  0  0  0  0  0  0
    0.7145   -2.8875    0.0000 N   0  0  0  0  0  0  0  0  0  0  0  0
    0.7145   -3.7125    0.0000 C   0  0  0  0  0  0  0  0  0  0  0  0
    1.4289   -2.4750    0.0000 C   0  0  0  0  0  0  0  0  0  0  0  0
    2.1434   -2.8875    0.0000 C   0  0  0  0  0  0  0  0  0  0  0  0
    2.8579   -2.4750    0.0000 C   0  0  0  0  0  0  0  0  0  0  0  0
    2.8579   -1.6500    0.0000 O   0  0  0  0  0  0  0  0  0  0  0  0
    3.5724   -2.8875    0.0000 C   0  0  0  0  0  0  0  0  0  0  0  0
    4.2868   -2.4750    0.0000 C   0  0  0  0  0  0  0  0  0  0  0  0
    5.0013   -2.8875    0.0000 C   0  0  0  0  0  0  0  0  0  0  0  0
    5.0013   -3.7125    0.0000 C   0  0  0  0  0  0  0  0  0  0  0  0
    5.7158   -4.1250    0.0000 F   0  0  0  0  0  0  0  0  0  0  0  0
    4.2868   -4.1250    0.0000 C   0  0  0  0  0  0  0  0  0  0  0  0
    3.5724   -3.7125    0.0000 C   0  0  0  0  0  0  0  0  0  0  0  0
  1  2  1  0  0  0  0
  2  3  1  0  0  0  0
  3  4  2  0  0  0  0
  4  5  1  0  0  0  0
  5  6  2  0  0  0  0
  6  7  1  0  0  0  0
  7  8  1  0  0  0  0
  7  9  2  0  0  0  0
  3  9  1  0  0  0  0
  9 10  1  0  0  0  0
 10 11  1  0  0  0  0
 10 12  1  0  0  0  0
 12 13  1  0  0  0  0
 13 14  1  0  0  0  0
 14 15  2  0  0  0  0
 14 16  1  0  0  0  0
 16 17  2  0  0  0  0
 17 18  1  0  0  0  0
 18 19  2  0  0  0  0
 19 20  1  0  0  0  0
 19 21  1  0  0  0  0
 21 22  2  0  0  0  0
 16 22  1  0  0  0  0
M  END
> <ID>
CPD_1980

$$$$
CPD_1985
  Mrv1822 09091914012D          

 20 21  0  0  0  0            999 V2000
    1.4289    0.8250    0.0000 C   0  0  0  0  0  0  0  0  0  0  0  0
    1.4289    0.0000    0.0000 O   0  0  0  0  0  0  0  0  0  0  0  0
    2.1434   -0.4125    0.0000 C   0  0  0  0  0  0  0  0  0  0  0  0
    2.8579    0.0000    0.0000 O   0  0  0  0  0  0  0  0  0  0  0  0
    2.1434   -1.2375    0.0000 C   0  0  0  0  0  0  0  0  0  0  0  0
    2.8579   -1.6500    0.0000 C   0  0  0  0  0  0  0  0  0  0  0  0
    2.8579   -2.4750    0.0000 C   0  0  0  0  0  0  0  0  0  0  0  0
    2.1434   -2.8875    0.0000 C   0  0  0  0  0  0  0  0  0  0  0  0
    2.1434   -3.7125    0.0000 N   0  0  0  0  0  0  0  0  0  0  0  0
    1.4289   -4.1250    0.0000 C   0  0  0  0  0  0  0  0  0  0  0  0
    1.4289   -4.9500    0.0000 C   0  0  0  0  0  0  0  0  0  0  0  0
    2.1434   -5.3625    0.0000 O   0  0  0  0  0  0  0  0  0  0  0  0
    2.8579   -4.9500    0.0000 C   0  0  0  0  0  0  0  0  0  0  0  0
    0.7145   -5.3625    0.0000 C   0  0  0  0  0  0  0  0  0  0  0  0
   -0.0000   -4.9500    0.0000 C   0  0  0  0  0  0  0  0  0  0  0  0
   -0.0000   -4.1250    0.0000 C   0  0  0  0  0  0  0  0  0  0  0  0
    0.7145   -3.7125    0.0000 C   0  0  0  0  0  0  0  0  0  0  0  0
    0.7145   -2.8875    0.0000 Cl  0  0  0  0  0  0  0  0  0  0  0  0
    1.4289   -2.4750    0.0000 C   0  0  0  0  0  0  0  0  0  0  0  0
    1.4289   -1.6500    0.0000 C   0  0  0  0  0  0  0  0  0  0  0  0
  1  2  1  0  0  0  0
  2  3  1  0  0  0  0
  3  4  2  0  0  0  0
  3  5  1  0  0  0  0
  5  6  2  0  0  0  0
  6  7  1  0  0  0  0
  7  8  2  0  0  0  0
  8  9  1  0  0  0  0
  9 10  1  0  0  0  0
 10 11  2  0  0  0  0
 11 12  1  0  0  0  0
 12 13  1  0  0  0  0
 11 14  1  0  0  0  0
 14 15  2  0  0  0  0
 15 16  1  0  0  0  0
 16 17  2  0  0  0  0
 10 17  1  0  0  0  0
 17 18  1  0  0  0  0
  8 19  1  0  0  0  0
 19 20  2  0  0  0  0
  5 20  1  0  0  0  0
M  END
> <ID>
CPD_1985

$$$$
CPD_1990
  Mrv1822 09091914012D          

 25 26  0  0  0  0            999 V2000
   -5.0013   -2.8875    0.0000 C   0  0  0  0  0  0  0  0  0  0  0  0
   -4.2868   -2.4750    0.0000 C   0  0  0  0  0  0  0  0  0  0  0  0
   -3.5724   -2.8875    0.0000 C   0  0  0  0  0  0  0  0  0  0  0  0
   -2.8579   -2.4750    0.0000 N   0  0  0  0  0  0  0  0  0  0  0  0
   -2.1434   -2.8875    0.0000 C   0  0  0  0  0  0  0  0  0  0  0  0
   -2.1434   -3.7125    0.0000 O   0  0  0  0  0  0  0  0  0  0  0  0
   -1.4289   -2.4750    0.0000 C   0  0  0  0  0  0  0  0  0  0  0  0
   -1.4289   -1.6500    0.0000 C   0  0  0  0  0  0  0  0  0  0  0  0
   -0.7145   -1.2375    0.0000 C   0  0  0  0  0  0  0  0  0  0  0  0
   -0.7145   -0.4125    0.0000 N   0  0  0  0  0  0  0  0  0  0  0  0
    0.0000   -1.6500    0.0000 C   0  0  0  0  0  0  0  0  0  0  0  0
    0.0000   -2.4750    0.0000 C   0  0  0  0  0  0  0  0  0  0  0  0
    0.7145   -2.8875    0.0000 N   0  0  0  0  0  0  0  0  0  0  0  0
    1.4289   -2.4750    0.0000 C   0  0  0  0  0  0  0  0  0  0  0  0
    2.1434   -2.8875    0.0000 C   0  0  0  0  0  0  0  0  0  0  0  0
    2.8579   -2.4750    0.0000 O   0  0  0  0  0  0  0  0  0  0  0  0
    3.5724   -2.8875    0.0000 C   0  0  0  0  0  0  0  0  0  0  0  0
    4.2868   -2.4750    0.0000 C   0  0  0  0  0  0  0  0  0  0  0  0
    5.0013   -2.8875    0.0000 C   0  0  0  0  0  0  0  0  0  0  0  0
    5.0013   -3.7125    0.0000 C   0  0  0  0  0  0  0  0  0  0  0  0
    5.7158   -4.1250    0.0000 S   0  0  0  0  0  0  0  0  0  0  0  0
    6.4302   -3.7125    0.0000 C   0  0  0  0  0  0  0  0  0  0  0  0
    4.2868   -4.1250    0.0000 C   0  0  0  0  0  0  0  0  0  0  0  0
    3.5724   -3.7125    0.0000 C   0  0  0  0  0  0  0  0  0  0  0  0
   -0.7145   -2.8875    0.0000 C   0  0  0  0  0  0  0  0  0  0  0  0
  1  2  1  0  0  0  0
  2  3  1  0  0  0  0
  3  4  1  0  0  0  0
  4  5  1  0  0  0  0
  5  6  2  0  0  0  0
  5  7  1  0  0  0  0
  7  8  2  0  0  0  0
  8  9  1  0  0  0  0
  9 10  1  0  0  0  0
  9 11  2  0  0  0  0
 11 12  1  0  0  0  0
 12 13  1  0  0  0  0
 13 14  1  0  0  0  0
 14 15  1  0  0  0  0
 15 16  1  0  0  0  0
 16 17  1  0  0  0  0
 17 18  2  0  0  0  0
 18 19  1  0  0  0  0
 19 20  2  0  0  0  0
 20 21  1  0  0  0  0
 21 22  1  0  0  0  0
 20 23  1  0  0  0  0
 23 24  2  0  0  0  0
 17 24  1  0  0  0  0
 12 25  2  0  0  0  0
  7 25  1  0  0  0  0
M  END
> <ID>
CPD_1990

$$$$
CPD_1995
  Mrv1822 09091914012D          

 25 27  0  0  0  0            999 V2000
   -2.8579   -4.1250    0.0000 C   0  0  0  0  0  0  0  0  0  0  0  0
   -2.1434   -3.7125    0.0000 S   0  0  0  0  0  0  0  0  0  0  0  0
   -1.4289   -4.1250    0.0000 C   0  0  0  0  0  0  0  0  0  0  0  0
   -0.7145   -3.7125    0.0000 C   0  0  0  0  0  0  0  0  0  0  0  0
    0.0000   -4.1250    0.0000 C   0  0  0  0  0  0  0  0  0  0  0  0
    0.0000   -4.9500    0.0000 C   0  0  0  0  0  0  0  0  0  0  0  0
    0.7145   -5.3625    0.0000 O   0  0  0  0  0  0  0  0  0  0  0  0
    1.4289   -4.9500    0.0000 C   0  0  0  0  0  0  0  0  0  0  0  0
    2.1434   -5.3625    0.0000 C   0  0  0  0  0  0  0  0  0  0  0  0
    2.8579   -4.9500    0.0000 N   0  0  0  0  0  0  0  0  0  0  0  0
    3.5724   -5.3625    0.0000 C   0  0  0  0  0  0  0  0  0  0  0  0
    4.2868   -4.9500    0.0000 C   0  0  0  0  0  0  0  0  0  0  0  0
    5.0013   -5.3625    0.0000 C   0  0  0  0  0  0  0  0  0  0  0  0
    5.0013   -6.1875    0.0000 C   0  0  0  0  0  0  0  0  0  0  0  0
    4.2868   -6.6000    0.0000 C   0  0  0  0  0  0  0  0  0  0  0  0
    3.5724   -6.1875    0.0000 C   0  0  0  0  0  0  0  0  0  0  0  0
    5.7158   -6.6000    0.0000 C   0  0  0  0  0  0  0  0  0  0  0  0
    6.4302   -6.1875    0.0000 N   0  0  0  0  0  0  0  0  0  0  0  0
    7.1447   -6.6000    0.0000 N   0  0  0  0  0  0  0  0  0  0  0  0
    7.1447   -7.4250    0.0000 C   0  0  0  0  0  0  0  0  0  0  0  0
    7.8592   -7.8375    0.0000 S   0  0  0  0  0  0  0  0  0  0  0  0
    6.4302   -7.8375    0.0000 C   0  0  0  0  0  0  0  0  0  0  0  0
    5.7158   -7.4250    0.0000 C   0  0  0  0  0  0  0  0  0  0  0  0
   -0.7145   -5.3625    0.0000 C   0  0  0  0  0  0  0  0  0  0  0  0
   -1.4289   -4.9500    0.0000 C   0  0  0  0  0  0  0  0  0  0  0  0
  1  2  1  0  0  0  0
  2  3  1  0  0  0  0
  3  4  2  0  0  0  0
  4  5  1  0  0  0  0
  5  6  2  0  0  0  0
  6  7  1  0  0  0  0
  7  8  1  0  0  0  0
  8  9  1  0  0  0  0
  9 10  1  0  0  0  0
 10 11  1  0  0  0  0
 11 12  2  0  0  0  0
 12 13  1  0  0  0  0
 13 14  2  0  0  0  0
 14 15  1  0  0  0  0
 15 16  2  0  0  0  0
 11 16  1  0  0  0  0
 14 17  1  0  0  0  0
 17 18  2  0  0  0  0
 18 19  1  0  0  0  0
 19 20  1  0  0  0  0
 20 21  2  0  0  0  0
 20 22  1  0  0  0  0
 22 23  2  0  0  0  0
 17 23  1  0  0  0  0
  6 24  1  0  0  0  0
 24 25  2  0  0  0  0
  3 25  1  0  0  0  0
M  END
> <ID>
CPD_1995

$$$$
CPD_2000
  Mrv1822 09091914012D          

 18 19  0  0  0  0            999 V2000
   -2.1434    0.4125    0.0000 C   0  0  0  0  0  0  0  0  0  0  0  0
   -2.1434    1.2375    0.0000 S   0  0  0  0  0  0  0  0  0  0  0  0
   -1.4289    1.6500    0.0000 C   0  0  0  0  0  0  0  0  0  0  0  0
   -1.4289    2.4750    0.0000 C   0  0  0  0  0  0  0  0  0  0  0  0
   -0.7145    2.8875    0.0000 C   0  0  0  0  0  0  0  0  0  0  0  0
    0.0000    2.4750    0.0000 C   0  0  0  0  0  0  0  0  0  0  0  0
    0.7145    2.8875    0.0000 O   0  0  0  0  0  0  0  0  0  0  0  0
    1.4289    2.4750    0.0000 C   0  0  0  0  0  0  0  0  0  0  0  0
    2.1434    2.8875    0.0000 C   0  0  0  0  0  0  0  0  0  0  0  0
    2.8579    2.4750    0.0000 N   0  0  0  0  0  0  0  0  0  0  0  0
    3.5724    2.8875    0.0000 C   0  0  0  0  0  0  0  0  0  0  0  0
    3.6586    3.7080    0.0000 C   0  0  0  0  0  0  0  0  0  0  0  0
    4.4656    3.8795    0.0000 N   0  0  0  0  0  0  0  0  0  0  0  0
    4.8781    3.1650    0.0000 C   0  0  0  0  0  0  0  0  0  0  0  0
    5.6985    3.0788    0.0000 N   0  0  0  0  0  0  0  0  0  0  0  0
    4.3260    2.5519    0.0000 S   0  0  0  0  0  0  0  0  0  0  0  0
    0.0000    1.6500    0.0000 C   0  0  0  0  0  0  0  0  0  0  0  0
   -0.7145    1.2375    0.0000 C   0  0  0  0  0  0  0  0  0  0  0  0
  1  2  1  0  0  0  0
  2  3  1  0  0  0  0
  3  4  2  0  0  0  0
  4  5  1  0  0  0  0
  5  6  2  0  0  0  0
  6  7  1  0  0  0  0
  7  8  1  0  0  0  0
  8  9  1  0  0  0  0
  9 10  1  0  0  0  0
 10 11  1  0  0  0  0
 11 12  2  0  0  0  0
 12 13  1  0  0  0  0
 13 14  2  0  0  0  0
 14 15  1  0  0  0  0
 14 16  1  0  0  0  0
 11 16  1  0  0  0  0
  6 17  1  0  0  0  0
 17 18  2  0  0  0  0
  3 18  1  0  0  0  0
M  END
> <ID>
CPD_2000

$$$$
CPD_2005
  Mrv1822 09091914012D          

 20 21  0  0  0  0            999 V2000
   -0.7145   -6.1875    0.0000 C   0  0  0  0  0  0  0  0  0  0  0  0
   -0.7145   -5.3625    0.0000 S   0  0  0  0  0  0  0  0  0  0  0  0
    0.0000   -4.9500    0.0000 C   0  0  0  0  0  0  0  0  0  0  0  0
    0.0000   -4.1250    0.0000 C   0  0  0  0  0  0  0  0  0  0  0  0
    0.7145   -3.7125    0.0000 C   0  0  0  0  0  0  0  0  0  0  0  0
    1.4289   -4.1250    0.0000 C   0  0  0  0  0  0  0  0  0  0  0  0
    2.1434   -3.7125    0.0000 O   0  0  0  0  0  0  0  0  0  0  0  0
    2.8579   -4.1250    0.0000 C   0  0  0  0  0  0  0  0  0  0  0  0
    3.5724   -3.7125    0.0000 C   0  0  0  0  0  0  0  0  0  0  0  0
    4.2868   -4.1250    0.0000 N   0  0  0  0  0  0  0  0  0  0  0  0
    5.0013   -3.7125    0.0000 C   0  0  0  0  0  0  0  0  0  0  0  0
    5.0013   -2.8875    0.0000 C   0  0  0  0  0  0  0  0  0  0  0  0
    5.7158   -4.1250    0.0000 C   0  0  0  0  0  0  0  0  0  0  0  0
    6.4302   -3.7125    0.0000 C   0  0  0  0  0  0  0  0  0  0  0  0
    7.1447   -4.1250    0.0000 C   0  0  0  0  0  0  0  0  0  0  0  0
    7.1447   -4.9500    0.0000 C   0  0  0  0  0  0  0  0  0  0  0  0
    6.4302   -5.3625    0.0000 C   0  0  0  0  0  0  0  0  0  0  0  0
    5.7158   -4.9500    0.0000 C   0  0  0  0  0  0  0  0  0  0  0  0
    1.4289   -4.9500    0.0000 C   0  0  0  0  0  0  0  0  0  0  0  0
    0.7145   -5.3625    0.0000 C   0  0  0  0  0  0  0  0  0  0  0  0
  1  2  1  0  0  0  0
  2  3  1  0  0  0  0
  3  4  2  0  0  0  0
  4  5  1  0  0  0  0
  5  6  2  0  0  0  0
  6  7  1  0  0  0  0
  7  8  1  0  0  0  0
  8  9  1  0  0  0  0
  9 10  1  0  0  0  0
 10 11  1  0  0  0  0
 11 12  1  0  0  0  0
 11 13  1  0  0  0  0
 13 14  2  0  0  0  0
 14 15  1  0  0  0  0
 15 16  2  0  0  0  0
 16 17  1  0  0  0  0
 17 18  2  0  0  0  0
 13 18  1  0  0  0  0
  6 19  1  0  0  0  0
 19 20  2  0  0  0  0
  3 20  1  0  0  0  0
M  END
> <ID>
CPD_2005

$$$$
CPD_2010
  Mrv1822 09091914012D          

 31 34  0  0  0  0            999 V2000
   -1.4087    2.8744    0.0000 C   0  0  0  0  0  0  0  0  0  0  0  0
   -1.8212    2.1599    0.0000 O   0  0  0  0  0  0  0  0  0  0  0  0
   -1.4087    1.4455    0.0000 C   0  0  0  0  0  0  0  0  0  0  0  0
   -0.5837    1.4455    0.0000 O   0  0  0  0  0  0  0  0  0  0  0  0
   -1.8212    0.7310    0.0000 C   0  0  0  0  0  0  0  0  0  0  0  0
   -1.4087    0.0165    0.0000 C   0  0  0  0  0  0  0  0  0  0  0  0
   -0.5837    0.0165    0.0000 C   0  0  0  0  0  0  0  0  0  0  0  0
   -0.1712   -0.6979    0.0000 N   0  0  0  0  0  0  0  0  0  0  0  0
    0.6538   -0.6979    0.0000 C   0  0  0  0  0  0  0  0  0  0  0  0
    1.1387   -0.0305    0.0000 C   0  0  0  0  0  0  0  0  0  0  0  0
    0.8838    0.7541    0.0000 C   0  0  0  0  0  0  0  0  0  0  0  0
    0.6288    1.5387    0.0000 N   0  0  0  0  0  0  0  0  0  0  0  0
    1.9233   -0.2854    0.0000 C   0  0  0  0  0  0  0  0  0  0  0  0
    2.6378    0.1271    0.0000 C   0  0  0  0  0  0  0  0  0  0  0  0
    3.3523   -0.2854    0.0000 C   0  0  0  0  0  0  0  0  0  0  0  0
    3.3523   -1.1104    0.0000 C   0  0  0  0  0  0  0  0  0  0  0  0
    2.6378   -1.5229    0.0000 C   0  0  0  0  0  0  0  0  0  0  0  0
    1.9233   -1.1104    0.0000 C   0  0  0  0  0  0  0  0  0  0  0  0
    1.1387   -1.3654    0.0000 C   0  0  0  0  0  0  0  0  0  0  0  0
   -1.8212   -0.6979    0.0000 N   0  0  0  0  0  0  0  0  0  0  0  0
   -2.6462   -0.6979    0.0000 C   0  0  0  0  0  0  0  0  0  0  0  0
   -3.0587   -1.4124    0.0000 O   0  0  0  0  0  0  0  0  0  0  0  0
   -3.0587    0.0165    0.0000 N   0  0  0  0  0  0  0  0  0  0  0  0
   -2.6462    0.7310    0.0000 C   0  0  0  0  0  0  0  0  0  0  0  0
   -3.0587    1.4455    0.0000 C   0  0  0  0  0  0  0  0  0  0  0  0
   -3.8837    1.4455    0.0000 C   0  0  0  0  0  0  0  0  0  0  0  0
   -4.2962    2.1599    0.0000 C   0  0  0  0  0  0  0  0  0  0  0  0
   -3.8837    2.8744    0.0000 C   0  0  0  0  0  0  0  0  0  0  0  0
   -4.2962    3.5889    0.0000 C   0  0  0  0  0  0  0  0  0  0  0  0
   -3.0587    2.8744    0.0000 C   0  0  0  0  0  0  0  0  0  0  0  0
   -2.6462    2.1599    0.0000 C   0  0  0  0  0  0  0  0  0  0  0  0
  1  2  1  0  0  0  0
  2  3  1  0  0  0  0
  3  4  2  0  0  0  0
  3  5  1  0  0  0  0
  5  6  2  0  0  0  0
  6  7  1  0  0  0  0
  7  8  1  0  0  0  0
  8  9  1  0  0  0  0
  9 10  2  0  0  0  0
 10 11  1  0  0  0  0
 11 12  3  0  0  0  0
 10 13  1  0  0  0  0
 13 14  2  0  0  0  0
 14 15  1  0  0  0  0
 15 16  2  0  0  0  0
 16 17  1  0  0  0  0
 17 18  2  0  0  0  0
 13 18  1  0  0  0  0
 18 19  1  0  0  0  0
  9 19  1  0  0  0  0
  6 20  1  0  0  0  0
 20 21  1  0  0  0  0
 21 22  2  0  0  0  0
 21 23  1  0  0  0  0
 23 24  1  0  0  0  0
  5 24  1  0  0  0  0
 24 25  1  0  0  0  0
 25 26  2  0  0  0  0
 26 27  1  0  0  0  0
 27 28  2  0  0  0  0
 28 29  1  0  0  0  0
 28 30  1  0  0  0  0
 30 31  2  0  0  0  0
 25 31  1  0  0  0  0
M  END
> <ID>
CPD_2010

$$$$
CPD_2015
  Mrv1822 09091914012D          

 19 20  0  0  1  0            999 V2000
    3.5479   -2.8452    0.0000 O   0  0  0  0  0  0  0  0  0  0  0  0
    3.5479   -2.0202    0.0000 C   0  0  2  0  0  0  0  0  0  0  0  0
    2.8334   -1.6077    0.0000 C   0  0  0  0  0  0  0  0  0  0  0  0
    2.1190   -2.0202    0.0000 N   0  0  0  0  0  0  0  0  0  0  0  0
    1.4045   -1.6077    0.0000 C   0  0  0  0  0  0  0  0  0  0  0  0
    0.6508   -1.9432    0.0000 C   0  0  0  0  0  0  0  0  0  0  0  0
    0.4793   -2.7502    0.0000 C   0  0  0  0  0  0  0  0  0  0  0  0
    0.3078   -3.5572    0.0000 N   0  0  0  0  0  0  0  0  0  0  0  0
    0.0988   -1.3301    0.0000 C   0  0  0  0  0  0  0  0  0  0  0  0
   -0.7262   -1.3301    0.0000 C   0  0  0  0  0  0  0  0  0  0  0  0
   -1.1387   -0.6157    0.0000 C   0  0  0  0  0  0  0  0  0  0  0  0
   -0.7262    0.0988    0.0000 C   0  0  0  0  0  0  0  0  0  0  0  0
    0.0988    0.0988    0.0000 C   0  0  0  0  0  0  0  0  0  0  0  0
    0.5113   -0.6157    0.0000 C   0  0  0  0  0  0  0  0  0  0  0  0
    1.3183   -0.7872    0.0000 C   0  0  0  0  0  0  0  0  0  0  0  0
    4.2624   -1.6077    0.0000 C   0  0  0  0  0  0  0  0  0  0  0  0
    4.9769   -2.0202    0.0000 C   0  0  0  0  0  0  0  0  0  0  0  0
    5.6913   -1.6077    0.0000 O   0  0  0  0  0  0  0  0  0  0  0  0
    4.9769   -2.8452    0.0000 O   0  0  0  0  0  0  0  0  0  0  0  0
  2  1  1  6  0  0  0
  2  3  1  0  0  0  0
  3  4  1  0  0  0  0
  4  5  1  0  0  0  0
  5  6  2  0  0  0  0
  6  7  1  0  0  0  0
  7  8  3  0  0  0  0
  6  9  1  0  0  0  0
  9 10  2  0  0  0  0
 10 11  1  0  0  0  0
 11 12  2  0  0  0  0
 12 13  1  0  0  0  0
 13 14  2  0  0  0  0
  9 14  1  0  0  0  0
 14 15  1  0  0  0  0
  5 15  1  0  0  0  0
  2 16  1  0  0  0  0
 16 17  1  0  0  0  0
 17 18  1  0  0  0  0
 17 19  2  0  0  0  0
M  END
> <ID>
CPD_2015

$$$$
CPD_2020
  Mrv1822 09091914012D          

 26 28  0  0  0  0            999 V2000
    1.4788   -3.5558    0.0000 C   0  0  0  0  0  0  0  0  0  0  0  0
    0.6538   -3.5558    0.0000 S   0  0  0  0  0  0  0  0  0  0  0  0
    0.6538   -2.7308    0.0000 O   0  0  0  0  0  0  0  0  0  0  0  0
    0.6538   -4.3808    0.0000 O   0  0  0  0  0  0  0  0  0  0  0  0
   -0.1712   -3.5558    0.0000 N   0  0  0  0  0  0  0  0  0  0  0  0
   -0.5837   -2.8414    0.0000 C   0  0  0  0  0  0  0  0  0  0  0  0
   -0.1712   -2.1269    0.0000 C   0  0  0  0  0  0  0  0  0  0  0  0
   -0.5837   -1.4124    0.0000 C   0  0  0  0  0  0  0  0  0  0  0  0
   -0.1712   -0.6979    0.0000 N   0  0  0  0  0  0  0  0  0  0  0  0
    0.6538   -0.6979    0.0000 C   0  0  0  0  0  0  0  0  0  0  0  0
    1.1387   -0.0305    0.0000 C   0  0  0  0  0  0  0  0  0  0  0  0
    0.8838    0.7541    0.0000 C   0  0  0  0  0  0  0  0  0  0  0  0
    0.6288    1.5387    0.0000 N   0  0  0  0  0  0  0  0  0  0  0  0
    1.9233   -0.2854    0.0000 C   0  0  0  0  0  0  0  0  0  0  0  0
    2.6378    0.1271    0.0000 C   0  0  0  0  0  0  0  0  0  0  0  0
    3.3523   -0.2854    0.0000 C   0  0  0  0  0  0  0  0  0  0  0  0
    3.3523   -1.1104    0.0000 C   0  0  0  0  0  0  0  0  0  0  0  0
    2.6378   -1.5229    0.0000 C   0  0  0  0  0  0  0  0  0  0  0  0
    1.9233   -1.1104    0.0000 C   0  0  0  0  0  0  0  0  0  0  0  0
    1.1387   -1.3654    0.0000 C   0  0  0  0  0  0  0  0  0  0  0  0
   -1.4087   -1.4124    0.0000 C   0  0  0  0  0  0  0  0  0  0  0  0
   -1.8212   -2.1269    0.0000 C   0  0  0  0  0  0  0  0  0  0  0  0
   -1.4087   -2.8414    0.0000 C   0  0  0  0  0  0  0  0  0  0  0  0
   -1.8212   -0.6979    0.0000 C   0  0  0  0  0  0  0  0  0  0  0  0
   -2.6462   -0.6979    0.0000 O   0  0  0  0  0  0  0  0  0  0  0  0
   -1.4087    0.0165    0.0000 O   0  0  0  0  0  0  0  0  0  0  0  0
  1  2  1  0  0  0  0
  2  3  2  0  0  0  0
  2  4  2  0  0  0  0
  2  5  1  0  0  0  0
  5  6  1  0  0  0  0
  6  7  2  0  0  0  0
  7  8  1  0  0  0  0
  8  9  1  0  0  0  0
  9 10  1  0  0  0  0
 10 11  2  0  0  0  0
 11 12  1  0  0  0  0
 12 13  3  0  0  0  0
 11 14  1  0  0  0  0
 14 15  2  0  0  0  0
 15 16  1  0  0  0  0
 16 17  2  0  0  0  0
 17 18  1  0  0  0  0
 18 19  2  0  0  0  0
 14 19  1  0  0  0  0
 19 20  1  0  0  0  0
 10 20  1  0  0  0  0
  8 21  2  0  0  0  0
 21 22  1  0  0  0  0
 22 23  2  0  0  0  0
  6 23  1  0  0  0  0
 21 24  1  0  0  0  0
 24 25  1  0  0  0  0
 24 26  2  0  0  0  0
M  END
> <ID>
CPD_2020

$$$$
CPD_2025
  Mrv1822 09091914012D          

 22 24  0  0  0  0            999 V2000
   -1.3562   -4.8440    0.0000 C   0  0  0  0  0  0  0  0  0  0  0  0
   -1.4424   -4.0235    0.0000 O   0  0  0  0  0  0  0  0  0  0  0  0
   -0.7750   -3.5386    0.0000 C   0  0  0  0  0  0  0  0  0  0  0  0
   -0.0213   -3.8742    0.0000 O   0  0  0  0  0  0  0  0  0  0  0  0
   -0.8612   -2.7181    0.0000 C   0  0  0  0  0  0  0  0  0  0  0  0
   -1.5757   -2.3056    0.0000 C   0  0  0  0  0  0  0  0  0  0  0  0
   -2.3294   -2.6412    0.0000 N   0  0  0  0  0  0  0  0  0  0  0  0
   -1.4042   -1.4986    0.0000 C   0  0  0  0  0  0  0  0  0  0  0  0
   -0.5837   -1.4124    0.0000 C   0  0  0  0  0  0  0  0  0  0  0  0
   -0.1712   -0.6979    0.0000 N   0  0  0  0  0  0  0  0  0  0  0  0
    0.6538   -0.6979    0.0000 C   0  0  0  0  0  0  0  0  0  0  0  0
    1.1387   -0.0305    0.0000 C   0  0  0  0  0  0  0  0  0  0  0  0
    0.8838    0.7541    0.0000 C   0  0  0  0  0  0  0  0  0  0  0  0
    0.6288    1.5387    0.0000 N   0  0  0  0  0  0  0  0  0  0  0  0
    1.9233   -0.2854    0.0000 C   0  0  0  0  0  0  0  0  0  0  0  0
    2.6378    0.1271    0.0000 C   0  0  0  0  0  0  0  0  0  0  0  0
    3.3523   -0.2854    0.0000 C   0  0  0  0  0  0  0  0  0  0  0  0
    3.3523   -1.1104    0.0000 C   0  0  0  0  0  0  0  0  0  0  0  0
    2.6378   -1.5229    0.0000 C   0  0  0  0  0  0  0  0  0  0  0  0
    1.9233   -1.1104    0.0000 C   0  0  0  0  0  0  0  0  0  0  0  0
    1.1387   -1.3654    0.0000 C   0  0  0  0  0  0  0  0  0  0  0  0
   -0.2481   -2.1661    0.0000 S   0  0  0  0  0  0  0  0  0  0  0  0
  1  2  1  0  0  0  0
  2  3  1  0  0  0  0
  3  4  2  0  0  0  0
  3  5  1  0  0  0  0
  5  6  2  0  0  0  0
  6  7  1  0  0  0  0
  6  8  1  0  0  0  0
  8  9  2  0  0  0  0
  9 10  1  0  0  0  0
 10 11  1  0  0  0  0
 11 12  2  0  0  0  0
 12 13  1  0  0  0  0
 13 14  3  0  0  0  0
 12 15  1  0  0  0  0
 15 16  2  0  0  0  0
 16 17  1  0  0  0  0
 17 18  2  0  0  0  0
 18 19  1  0  0  0  0
 19 20  2  0  0  0  0
 15 20  1  0  0  0  0
 20 21  1  0  0  0  0
 11 21  1  0  0  0  0
  9 22  1  0  0  0  0
  5 22  1  0  0  0  0
M  END
> <ID>
CPD_2025

$$$$
CPD_2030
  Mrv1822 09091914012D          

 27 30  0  0  0  0            999 V2000
   -2.4368    2.0625    0.0000 O   0  0  0  0  0  0  0  0  0  0  0  0
   -1.7224    2.4750    0.0000 C   0  0  0  0  0  0  0  0  0  0  0  0
   -1.0079    2.0625    0.0000 O   0  0  0  0  0  0  0  0  0  0  0  0
   -1.7224    3.3000    0.0000 C   0  0  0  0  0  0  0  0  0  0  0  0
   -2.4368    3.7125    0.0000 C   0  0  0  0  0  0  0  0  0  0  0  0
   -2.4368    4.5375    0.0000 C   0  0  0  0  0  0  0  0  0  0  0  0
   -1.7224    4.9500    0.0000 C   0  0  0  0  0  0  0  0  0  0  0  0
   -1.0079    4.5375    0.0000 C   0  0  0  0  0  0  0  0  0  0  0  0
   -1.0079    3.7125    0.0000 C   0  0  0  0  0  0  0  0  0  0  0  0
   -0.2934    3.3000    0.0000 S   0  0  0  0  0  0  0  0  0  0  0  0
    0.4210    3.7125    0.0000 C   0  0  0  0  0  0  0  0  0  0  0  0
    1.1355    3.3000    0.0000 C   0  0  0  0  0  0  0  0  0  0  0  0
    1.8500    3.7125    0.0000 C   0  0  0  0  0  0  0  0  0  0  0  0
    2.5645    3.3000    0.0000 C   0  0  0  0  0  0  0  0  0  0  0  0
    2.5645    2.4750    0.0000 C   0  0  0  0  0  0  0  0  0  0  0  0
    3.2789    2.0625    0.0000 N   0  0  0  0  0  0  0  0  0  0  0  0
    3.2789    1.2375    0.0000 C   0  0  0  0  0  0  0  0  0  0  0  0
    3.9934    0.8250    0.0000 N   0  0  0  0  0  0  0  0  0  0  0  0
    3.9934    0.0000    0.0000 C   0  0  0  0  0  0  0  0  0  0  0  0
    3.2789   -0.4125    0.0000 N   0  0  0  0  0  0  0  0  0  0  0  0
    2.5645    0.0000    0.0000 N   0  0  0  0  0  0  0  0  0  0  0  0
    1.7798   -0.2549    0.0000 C   0  0  0  0  0  0  0  0  0  0  0  0
    1.2949    0.4125    0.0000 N   0  0  0  0  0  0  0  0  0  0  0  0
    1.7798    1.0799    0.0000 N   0  0  0  0  0  0  0  0  0  0  0  0
    2.5645    0.8250    0.0000 C   0  0  0  0  0  0  0  0  0  0  0  0
    1.8500    2.0625    0.0000 C   0  0  0  0  0  0  0  0  0  0  0  0
    1.1355    2.4750    0.0000 C   0  0  0  0  0  0  0  0  0  0  0  0
  1  2  1  0  0  0  0
  2  3  2  0  0  0  0
  2  4  1  0  0  0  0
  4  5  2  0  0  0  0
  5  6  1  0  0  0  0
  6  7  2  0  0  0  0
  7  8  1  0  0  0  0
  8  9  2  0  0  0  0
  4  9  1  0  0  0  0
  9 10  1  0  0  0  0
 10 11  1  0  0  0  0
 11 12  1  0  0  0  0
 12 13  2  0  0  0  0
 13 14  1  0  0  0  0
 14 15  2  0  0  0  0
 15 16  1  0  0  0  0
 16 17  1  0  0  0  0
 17 18  2  0  0  0  0
 18 19  1  0  0  0  0
 19 20  2  0  0  0  0
 20 21  1  0  0  0  0
 21 22  1  0  0  0  0
 22 23  2  0  0  0  0
 23 24  1  0  0  0  0
 24 25  2  0  0  0  0
 17 25  1  0  0  0  0
 21 25  1  0  0  0  0
 15 26  1  0  0  0  0
 26 27  2  0  0  0  0
 12 27  1  0  0  0  0
M  END
> <ID>
CPD_2030

$$$$
CPD_2035
  Mrv1822 09091914012D          

 27 28  0  0  0  0            999 V2000
   -1.4289    0.8250    0.0000 C   0  0  0  0  0  0  0  0  0  0  0  0
   -1.4289   -0.0000    0.0000 O   0  0  0  0  0  0  0  0  0  0  0  0
   -0.7145   -0.4125    0.0000 C   0  0  0  0  0  0  0  0  0  0  0  0
    0.0000   -0.0000    0.0000 O   0  0  0  0  0  0  0  0  0  0  0  0
   -0.7145   -1.2375    0.0000 C   0  0  0  0  0  0  0  0  0  0  0  0
    0.0000   -1.6500    0.0000 C   0  0  0  0  0  0  0  0  0  0  0  0
    0.0000   -2.4750    0.0000 C   0  0  0  0  0  0  0  0  0  0  0  0
    0.7145   -2.8875    0.0000 F   0  0  0  0  0  0  0  0  0  0  0  0
   -0.7145   -2.8875    0.0000 C   0  0  0  0  0  0  0  0  0  0  0  0
   -0.7145   -3.7125    0.0000 N   0  0  0  0  0  0  0  0  0  0  0  0
   -0.0000   -4.1250    0.0000 C   0  0  0  0  0  0  0  0  0  0  0  0
    0.7145   -3.7125    0.0000 C   0  0  0  0  0  0  0  0  0  0  0  0
    1.4289   -4.1250    0.0000 C   0  0  0  0  0  0  0  0  0  0  0  0
    2.1434   -3.7125    0.0000 F   0  0  0  0  0  0  0  0  0  0  0  0
    1.4289   -4.9500    0.0000 C   0  0  0  0  0  0  0  0  0  0  0  0
    0.7145   -5.3625    0.0000 C   0  0  0  0  0  0  0  0  0  0  0  0
   -0.0000   -4.9500    0.0000 C   0  0  0  0  0  0  0  0  0  0  0  0
    0.7145   -6.1875    0.0000 C   0  0  0  0  0  0  0  0  0  0  0  0
    1.4289   -6.6000    0.0000 O   0  0  0  0  0  0  0  0  0  0  0  0
   -0.0000   -6.6000    0.0000 N   0  0  0  0  0  0  0  0  0  0  0  0
   -0.0000   -7.4250    0.0000 C   0  0  0  0  0  0  0  0  0  0  0  0
   -0.0000   -8.2500    0.0000 C   0  0  0  0  0  0  0  0  0  0  0  0
   -0.8250   -7.4250    0.0000 C   0  0  0  0  0  0  0  0  0  0  0  0
    0.8250   -7.4250    0.0000 C   0  0  0  0  0  0  0  0  0  0  0  0
   -1.4289   -2.4750    0.0000 C   0  0  0  0  0  0  0  0  0  0  0  0
   -2.1434   -2.8875    0.0000 F   0  0  0  0  0  0  0  0  0  0  0  0
   -1.4289   -1.6500    0.0000 C   0  0  0  0  0  0  0  0  0  0  0  0
  1  2  1  0  0  0  0
  2  3  1  0  0  0  0
  3  4  2  0  0  0  0
  3  5  1  0  0  0  0
  5  6  2  0  0  0  0
  6  7  1  0  0  0  0
  7  8  1  0  0  0  0
  7  9  2  0  0  0  0
  9 10  1  0  0  0  0
 10 11  1  0  0  0  0
 11 12  2  0  0  0  0
 12 13  1  0  0  0  0
 13 14  1  0  0  0  0
 13 15  2  0  0  0  0
 15 16  1  0  0  0  0
 16 17  2  0  0  0  0
 11 17  1  0  0  0  0
 16 18  1  0  0  0  0
 18 19  2  0  0  0  0
 18 20  1  0  0  0  0
 20 21  1  0  0  0  0
 21 22  1  0  0  0  0
 21 23  1  0  0  0  0
 21 24  1  0  0  0  0
  9 25  1  0  0  0  0
 25 26  1  0  0  0  0
 25 27  2  0  0  0  0
  5 27  1  0  0  0  0
M  END
> <ID>
CPD_2035

$$$$
CPD_2040
  Mrv1822 09091914012D          

 22 23  0  0  0  0            999 V2000
    2.2501    8.4777    0.0000 C   0  0  0  0  0  0  0  0  0  0  0  0
    1.5356    8.0652    0.0000 O   0  0  0  0  0  0  0  0  0  0  0  0
    1.5356    7.2402    0.0000 C   0  0  0  0  0  0  0  0  0  0  0  0
    2.2501    6.8277    0.0000 O   0  0  0  0  0  0  0  0  0  0  0  0
    0.8212    6.8277    0.0000 C   0  0  0  0  0  0  0  0  0  0  0  0
    0.8212    6.0027    0.0000 C   0  0  0  0  0  0  0  0  0  0  0  0
    0.1067    5.5902    0.0000 C   0  0  0  0  0  0  0  0  0  0  0  0
    0.1067    4.7652    0.0000 F   0  0  0  0  0  0  0  0  0  0  0  0
   -0.6078    6.0027    0.0000 C   0  0  0  0  0  0  0  0  0  0  0  0
   -1.3222    5.5902    0.0000 N   0  0  0  0  0  0  0  0  0  0  0  0
   -1.3222    4.7652    0.0000 C   0  0  0  0  0  0  0  0  0  0  0  0
   -2.1472    4.7652    0.0000 F   0  0  0  0  0  0  0  0  0  0  0  0
   -0.4972    4.7652    0.0000 F   0  0  0  0  0  0  0  0  0  0  0  0
   -1.3222    3.9402    0.0000 C   0  0  0  0  0  0  0  0  0  0  0  0
   -0.6548    3.4553    0.0000 N   0  0  0  0  0  0  0  0  0  0  0  0
   -0.9097    2.6706    0.0000 O   0  0  0  0  0  0  0  0  0  0  0  0
   -1.7347    2.6706    0.0000 C   0  0  0  0  0  0  0  0  0  0  0  0
   -2.2197    2.0032    0.0000 O   0  0  0  0  0  0  0  0  0  0  0  0
   -1.9897    3.4553    0.0000 N   0  0  0  0  0  0  0  0  0  0  0  0
   -0.6078    6.8277    0.0000 C   0  0  0  0  0  0  0  0  0  0  0  0
   -1.3222    7.2402    0.0000 F   0  0  0  0  0  0  0  0  0  0  0  0
    0.1067    7.2402    0.0000 C   0  0  0  0  0  0  0  0  0  0  0  0
  1  2  1  0  0  0  0
  2  3  1  0  0  0  0
  3  4  2  0  0  0  0
  3  5  1  0  0  0  0
  5  6  2  0  0  0  0
  6  7  1  0  0  0  0
  7  8  1  0  0  0  0
  7  9  2  0  0  0  0
  9 10  1  0  0  0  0
 10 11  1  0  0  0  0
 11 12  1  0  0  0  0
 11 13  1  0  0  0  0
 11 14  1  0  0  0  0
 14 15  2  0  0  0  0
 15 16  1  0  0  0  0
 16 17  1  0  0  0  0
 17 18  1  0  0  0  0
 17 19  2  0  0  0  0
 14 19  1  0  0  0  0
  9 20  1  0  0  0  0
 20 21  1  0  0  0  0
 20 22  2  0  0  0  0
  5 22  1  0  0  0  0
M  END
> <ID>
CPD_2040

$$$$
CPD_2045
  Mrv1822 09091914012D          

 33 36  0  0  0  0            999 V2000
    8.4669   -1.7116    0.0000 O   0  0  0  0  0  0  0  0  0  0  0  0
    7.7525   -1.2991    0.0000 C   0  0  0  0  0  0  0  0  0  0  0  0
    7.0380   -1.7116    0.0000 C   0  0  0  0  0  0  0  0  0  0  0  0
    7.0380   -2.5366    0.0000 N   0  0  0  0  0  0  0  0  0  0  0  0
    6.3235   -2.9491    0.0000 C   0  0  0  0  0  0  0  0  0  0  0  0
    6.3235   -3.7741    0.0000 C   0  0  0  0  0  0  0  0  0  0  0  0
    5.6091   -4.1866    0.0000 C   0  0  0  0  0  0  0  0  0  0  0  0
    5.6091   -5.0116    0.0000 N   0  0  0  0  0  0  0  0  0  0  0  0
    4.8946   -5.4241    0.0000 C   0  0  0  0  0  0  0  0  0  0  0  0
    4.1801   -5.0116    0.0000 O   0  0  0  0  0  0  0  0  0  0  0  0
    4.8946   -6.2491    0.0000 C   0  0  0  0  0  0  0  0  0  0  0  0
    5.5620   -6.7340    0.0000 C   0  0  0  0  0  0  0  0  0  0  0  0
    5.3071   -7.5187    0.0000 C   0  0  0  0  0  0  0  0  0  0  0  0
    4.4821   -7.5187    0.0000 C   0  0  0  0  0  0  0  0  0  0  0  0
    4.2272   -6.7340    0.0000 N   0  0  0  0  0  0  0  0  0  0  0  0
    4.8946   -3.7741    0.0000 C   0  0  0  0  0  0  0  0  0  0  0  0
    4.8946   -2.9491    0.0000 C   0  0  0  0  0  0  0  0  0  0  0  0
    5.6091   -2.5366    0.0000 C   0  0  0  0  0  0  0  0  0  0  0  0
    7.7525   -0.4741    0.0000 N   0  0  0  0  0  0  0  0  0  0  0  0
    8.4669   -0.0616    0.0000 C   0  0  0  0  0  0  0  0  0  0  0  0
    8.4669    0.7634    0.0000 C   0  0  0  0  0  0  0  0  0  0  0  0
    9.1814    1.1759    0.0000 C   0  0  0  0  0  0  0  0  0  0  0  0
    9.8959    0.7634    0.0000 C   0  0  0  0  0  0  0  0  0  0  0  0
   10.6104    1.1759    0.0000 N   0  0  0  0  0  0  0  0  0  0  0  0
   10.6104    2.0009    0.0000 C   0  0  0  0  0  0  0  0  0  0  0  0
    9.8959    2.4134    0.0000 O   0  0  0  0  0  0  0  0  0  0  0  0
   11.3248    2.4134    0.0000 C   0  0  0  0  0  0  0  0  0  0  0  0
   11.4111    3.2339    0.0000 C   0  0  0  0  0  0  0  0  0  0  0  0
   12.2180    3.4054    0.0000 C   0  0  0  0  0  0  0  0  0  0  0  0
   12.6305    2.6909    0.0000 C   0  0  0  0  0  0  0  0  0  0  0  0
   12.0785    2.0778    0.0000 O   0  0  0  0  0  0  0  0  0  0  0  0
    9.8959   -0.0616    0.0000 C   0  0  0  0  0  0  0  0  0  0  0  0
    9.1814   -0.4741    0.0000 C   0  0  0  0  0  0  0  0  0  0  0  0
  1  2  2  0  0  0  0
  2  3  1  0  0  0  0
  3  4  1  0  0  0  0
  4  5  1  0  0  0  0
  5  6  2  0  0  0  0
  6  7  1  0  0  0  0
  7  8  1  0  0  0  0
  8  9  1  0  0  0  0
  9 10  2  0  0  0  0
  9 11  1  0  0  0  0
 11 12  1  0  0  0  0
 12 13  1  0  0  0  0
 13 14  1  0  0  0  0
 14 15  1  0  0  0  0
 11 15  1  0  0  0  0
  7 16  2  0  0  0  0
 16 17  1  0  0  0  0
 17 18  2  0  0  0  0
  5 18  1  0  0  0  0
  2 19  1  0  0  0  0
 19 20  1  0  0  0  0
 20 21  2  0  0  0  0
 21 22  1  0  0  0  0
 22 23  2  0  0  0  0
 23 24  1  0  0  0  0
 24 25  1  0  0  0  0
 25 26  2  0  0  0  0
 25 27  1  0  0  0  0
 27 28  2  0  0  0  0
 28 29  1  0  0  0  0
 29 30  2  0  0  0  0
 30 31  1  0  0  0  0
 27 31  1  0  0  0  0
 23 32  1  0  0  0  0
 32 33  2  0  0  0  0
 20 33  1  0  0  0  0
M  END
> <ID>
CPD_2045

$$$$
CPD_2050
  Mrv1822 09091914012D          

 34 37  0  0  0  0            999 V2000
   -0.7145   -2.8875    0.0000 Cl  0  0  0  0  0  0  0  0  0  0  0  0
    0.0000   -2.4750    0.0000 C   0  0  0  0  0  0  0  0  0  0  0  0
    0.0000   -1.6500    0.0000 C   0  0  0  0  0  0  0  0  0  0  0  0
    0.7145   -1.2375    0.0000 C   0  0  0  0  0  0  0  0  0  0  0  0
    1.4289   -1.6500    0.0000 C   0  0  0  0  0  0  0  0  0  0  0  0
    1.4289   -2.4750    0.0000 C   0  0  0  0  0  0  0  0  0  0  0  0
    0.7145   -2.8875    0.0000 C   0  0  0  0  0  0  0  0  0  0  0  0
    0.7145   -3.7125    0.0000 N   0  0  0  0  0  0  0  0  0  0  0  0
    0.0000   -4.1250    0.0000 C   0  0  0  0  0  0  0  0  0  0  0  0
    0.0000   -4.9500    0.0000 C   0  0  0  0  0  0  0  0  0  0  0  0
    0.7145   -5.3625    0.0000 O   0  0  0  0  0  0  0  0  0  0  0  0
   -0.7145   -5.3625    0.0000 N   0  0  0  0  0  0  0  0  0  0  0  0
   -0.7145   -6.1875    0.0000 C   0  0  0  0  0  0  0  0  0  0  0  0
    0.0000   -6.6000    0.0000 C   0  0  0  0  0  0  0  0  0  0  0  0
    0.0000   -7.4250    0.0000 C   0  0  0  0  0  0  0  0  0  0  0  0
   -0.7145   -7.8375    0.0000 C   0  0  0  0  0  0  0  0  0  0  0  0
   -0.7145   -8.6625    0.0000 N   0  0  0  0  0  0  0  0  0  0  0  0
   -1.4289   -9.0750    0.0000 C   0  0  0  0  0  0  0  0  0  0  0  0
   -2.1434   -8.6625    0.0000 O   0  0  0  0  0  0  0  0  0  0  0  0
   -1.4289   -9.9000    0.0000 C   0  0  0  0  0  0  0  0  0  0  0  0
   -0.7615  -10.3849    0.0000 C   0  0  0  0  0  0  0  0  0  0  0  0
   -1.0164  -11.1695    0.0000 C   0  0  0  0  0  0  0  0  0  0  0  0
   -1.8414  -11.1695    0.0000 C   0  0  0  0  0  0  0  0  0  0  0  0
   -2.0964  -10.3849    0.0000 O   0  0  0  0  0  0  0  0  0  0  0  0
   -1.4289   -7.4250    0.0000 C   0  0  0  0  0  0  0  0  0  0  0  0
   -1.4289   -6.6000    0.0000 C   0  0  0  0  0  0  0  0  0  0  0  0
    0.7145   -0.4125    0.0000 C   0  0  0  0  0  0  0  0  0  0  0  0
    0.0000   -0.0000    0.0000 C   0  0  0  0  0  0  0  0  0  0  0  0
    0.0000    0.8250    0.0000 C   0  0  0  0  0  0  0  0  0  0  0  0
    0.7145    1.2375    0.0000 C   0  0  0  0  0  0  0  0  0  0  0  0
    1.4289    0.8250    0.0000 C   0  0  0  0  0  0  0  0  0  0  0  0
    1.4289   -0.0000    0.0000 C   0  0  0  0  0  0  0  0  0  0  0  0
    2.1434   -0.4125    0.0000 C   0  0  0  0  0  0  0  0  0  0  0  0
    2.8579   -0.8250    0.0000 N   0  0  0  0  0  0  0  0  0  0  0  0
  1  2  1  0  0  0  0
  2  3  2  0  0  0  0
  3  4  1  0  0  0  0
  4  5  2  0  0  0  0
  5  6  1  0  0  0  0
  6  7  2  0  0  0  0
  2  7  1  0  0  0  0
  7  8  1  0  0  0  0
  8  9  1  0  0  0  0
  9 10  1  0  0  0  0
 10 11  2  0  0  0  0
 10 12  1  0  0  0  0
 12 13  1  0  0  0  0
 13 14  2  0  0  0  0
 14 15  1  0  0  0  0
 15 16  2  0  0  0  0
 16 17  1  0  0  0  0
 17 18  1  0  0  0  0
 18 19  2  0  0  0  0
 18 20  1  0  0  0  0
 20 21  2  0  0  0  0
 21 22  1  0  0  0  0
 22 23  2  0  0  0  0
 23 24  1  0  0  0  0
 20 24  1  0  0  0  0
 16 25  1  0  0  0  0
 25 26  2  0  0  0  0
 13 26  1  0  0  0  0
  4 27  1  0  0  0  0
 27 28  2  0  0  0  0
 28 29  1  0  0  0  0
 29 30  2  0  0  0  0
 30 31  1  0  0  0  0
 31 32  2  0  0  0  0
 27 32  1  0  0  0  0
 32 33  1  0  0  0  0
 33 34  3  0  0  0  0
M  END
> <ID>
CPD_2050

$$$$
CPD_2055
  Mrv1822 09091914012D          

 34 37  0  0  0  0            999 V2000
   -0.7145   14.1911    0.0000 N   0  0  0  0  0  0  0  0  0  0  0  0
   -1.4289   14.6036    0.0000 C   0  0  0  0  0  0  0  0  0  0  0  0
   -2.1434   14.1911    0.0000 C   0  0  0  0  0  0  0  0  0  0  0  0
   -2.8579   14.6036    0.0000 C   0  0  0  0  0  0  0  0  0  0  0  0
   -3.5724   14.1911    0.0000 C   0  0  0  0  0  0  0  0  0  0  0  0
   -4.2868   14.6036    0.0000 C   0  0  0  0  0  0  0  0  0  0  0  0
   -4.2868   15.4286    0.0000 C   0  0  0  0  0  0  0  0  0  0  0  0
   -3.5724   15.8411    0.0000 C   0  0  0  0  0  0  0  0  0  0  0  0
   -2.8579   15.4286    0.0000 C   0  0  0  0  0  0  0  0  0  0  0  0
   -2.1434   13.3661    0.0000 C   0  0  0  0  0  0  0  0  0  0  0  0
   -1.4289   12.9536    0.0000 C   0  0  0  0  0  0  0  0  0  0  0  0
   -1.4289   12.1286    0.0000 C   0  0  0  0  0  0  0  0  0  0  0  0
   -2.1434   11.7161    0.0000 C   0  0  0  0  0  0  0  0  0  0  0  0
   -2.1434   10.8911    0.0000 N   0  0  0  0  0  0  0  0  0  0  0  0
   -1.4289   10.4786    0.0000 C   0  0  0  0  0  0  0  0  0  0  0  0
   -1.4289    9.6536    0.0000 C   0  0  0  0  0  0  0  0  0  0  0  0
   -2.1434    9.2411    0.0000 O   0  0  0  0  0  0  0  0  0  0  0  0
   -0.7145    9.2411    0.0000 N   0  0  0  0  0  0  0  0  0  0  0  0
   -0.7145    8.4161    0.0000 C   0  0  0  0  0  0  0  0  0  0  0  0
   -0.0000    8.0036    0.0000 C   0  0  0  0  0  0  0  0  0  0  0  0
   -0.0000    7.1786    0.0000 C   0  0  0  0  0  0  0  0  0  0  0  0
   -0.7145    6.7661    0.0000 C   0  0  0  0  0  0  0  0  0  0  0  0
   -0.7145    5.9411    0.0000 N   0  0  0  0  0  0  0  0  0  0  0  0
   -0.0000    5.5286    0.0000 C   0  0  0  0  0  0  0  0  0  0  0  0
    0.7145    5.9411    0.0000 O   0  0  0  0  0  0  0  0  0  0  0  0
   -0.0000    4.7036    0.0000 C   0  0  0  0  0  0  0  0  0  0  0  0
    0.6674    4.2187    0.0000 C   0  0  0  0  0  0  0  0  0  0  0  0
    0.4125    3.4340    0.0000 C   0  0  0  0  0  0  0  0  0  0  0  0
   -0.4125    3.4340    0.0000 C   0  0  0  0  0  0  0  0  0  0  0  0
   -0.6674    4.2187    0.0000 O   0  0  0  0  0  0  0  0  0  0  0  0
   -1.4289    7.1786    0.0000 C   0  0  0  0  0  0  0  0  0  0  0  0
   -1.4289    8.0036    0.0000 C   0  0  0  0  0  0  0  0  0  0  0  0
   -2.8579   12.1286    0.0000 C   0  0  0  0  0  0  0  0  0  0  0  0
   -2.8579   12.9536    0.0000 C   0  0  0  0  0  0  0  0  0  0  0  0
  1  2  1  0  0  0  0
  2  3  1  0  0  0  0
  3  4  1  0  0  0  0
  4  5  2  0  0  0  0
  5  6  1  0  0  0  0
  6  7  2  0  0  0  0
  7  8  1  0  0  0  0
  8  9  2  0  0  0  0
  4  9  1  0  0  0  0
  3 10  1  0  0  0  0
 10 11  2  0  0  0  0
 11 12  1  0  0  0  0
 12 13  2  0  0  0  0
 13 14  1  0  0  0  0
 14 15  1  0  0  0  0
 15 16  1  0  0  0  0
 16 17  2  0  0  0  0
 16 18  1  0  0  0  0
 18 19  1  0  0  0  0
 19 20  2  0  0  0  0
 20 21  1  0  0  0  0
 21 22  2  0  0  0  0
 22 23  1  0  0  0  0
 23 24  1  0  0  0  0
 24 25  2  0  0  0  0
 24 26  1  0  0  0  0
 26 27  2  0  0  0  0
 27 28  1  0  0  0  0
 28 29  2  0  0  0  0
 29 30  1  0  0  0  0
 26 30  1  0  0  0  0
 22 31  1  0  0  0  0
 31 32  2  0  0  0  0
 19 32  1  0  0  0  0
 13 33  1  0  0  0  0
 33 34  2  0  0  0  0
 10 34  1  0  0  0  0
M  END
> <ID>
CPD_2055

$$$$
CPD_2060
  Mrv1822 09091914012D          

 28 30  0  0  0  0            999 V2000
    0.6646   -5.2474    0.0000 C   0  0  0  0  0  0  0  0  0  0  0  0
    1.3790   -4.8349    0.0000 O   0  0  0  0  0  0  0  0  0  0  0  0
    2.0935   -5.2474    0.0000 C   0  0  0  0  0  0  0  0  0  0  0  0
    2.8080   -4.8349    0.0000 C   0  0  0  0  0  0  0  0  0  0  0  0
    3.5225   -5.2474    0.0000 N   0  0  0  0  0  0  0  0  0  0  0  0
    4.2369   -4.8349    0.0000 C   0  0  0  0  0  0  0  0  0  0  0  0
    4.9514   -5.2474    0.0000 N   0  0  0  0  0  0  0  0  0  0  0  0
    5.6659   -4.8349    0.0000 C   0  0  0  0  0  0  0  0  0  0  0  0
    5.6659   -4.0099    0.0000 N   0  0  0  0  0  0  0  0  0  0  0  0
    4.9514   -3.5974    0.0000 C   0  0  0  0  0  0  0  0  0  0  0  0
    4.9514   -2.7724    0.0000 N   0  0  0  0  0  0  0  0  0  0  0  0
    4.2369   -2.3599    0.0000 C   0  0  0  0  0  0  0  0  0  0  0  0
    3.4833   -2.6955    0.0000 C   0  0  0  0  0  0  0  0  0  0  0  0
    2.9312   -2.0824    0.0000 N   0  0  0  0  0  0  0  0  0  0  0  0
    3.3437   -1.3679    0.0000 N   0  0  0  0  0  0  0  0  0  0  0  0
    4.1507   -1.5394    0.0000 N   0  0  0  0  0  0  0  0  0  0  0  0
    4.7638   -0.9874    0.0000 C   0  0  0  0  0  0  0  0  0  0  0  0
    4.5923   -0.1804    0.0000 C   0  0  0  0  0  0  0  0  0  0  0  0
    3.8076    0.0745    0.0000 F   0  0  0  0  0  0  0  0  0  0  0  0
    5.2054    0.3716    0.0000 C   0  0  0  0  0  0  0  0  0  0  0  0
    5.9900    0.1167    0.0000 C   0  0  0  0  0  0  0  0  0  0  0  0
    6.1615   -0.6903    0.0000 C   0  0  0  0  0  0  0  0  0  0  0  0
    5.5484   -1.2423    0.0000 C   0  0  0  0  0  0  0  0  0  0  0  0
    3.3117   -3.5024    0.0000 C   0  0  0  0  0  0  0  0  0  0  0  0
    3.9248   -4.0545    0.0000 O   0  0  0  0  0  0  0  0  0  0  0  0
    2.5271   -3.7574    0.0000 O   0  0  0  0  0  0  0  0  0  0  0  0
    2.3556   -4.5643    0.0000 C   0  0  0  0  0  0  0  0  0  0  0  0
    4.2369   -4.0099    0.0000 C   0  0  0  0  0  0  0  0  0  0  0  0
  1  2  1  0  0  0  0
  2  3  1  0  0  0  0
  3  4  1  0  0  0  0
  4  5  1  0  0  0  0
  5  6  1  0  0  0  0
  6  7  2  0  0  0  0
  7  8  1  0  0  0  0
  8  9  2  0  0  0  0
  9 10  1  0  0  0  0
 10 11  1  0  0  0  0
 11 12  1  0  0  0  0
 12 13  2  0  0  0  0
 13 14  1  0  0  0  0
 14 15  2  0  0  0  0
 15 16  1  0  0  0  0
 12 16  1  0  0  0  0
 16 17  1  0  0  0  0
 17 18  2  0  0  0  0
 18 19  1  0  0  0  0
 18 20  1  0  0  0  0
 20 21  2  0  0  0  0
 21 22  1  0  0  0  0
 22 23  2  0  0  0  0
 17 23  1  0  0  0  0
 13 24  1  0  0  0  0
 24 25  2  0  0  0  0
 24 26  1  0  0  0  0
 26 27  1  0  0  0  0
 10 28  2  0  0  0  0
  6 28  1  0  0  0  0
M  END
> <ID>
CPD_2060

$$$$
CPD_2065
  Mrv1822 09091914012D          

 33 36  0  0  1  0            999 V2000
   -1.9388   -3.1970    0.0000 H   0  0  0  0  0  0  0  0  0  0  0  0
   -1.6033   -3.9507    0.0000 C   0  0  2  0  0  0  0  0  0  0  0  0
   -0.8187   -3.6957    0.0000 C   0  0  0  0  0  0  0  0  0  0  0  0
   -0.3337   -4.3632    0.0000 N   0  0  0  0  0  0  0  0  0  0  0  0
   -0.8187   -5.0306    0.0000 C   0  0  0  0  0  0  0  0  0  0  0  0
   -1.6033   -4.7757    0.0000 C   0  0  2  0  0  0  0  0  0  0  0  0
   -1.9388   -5.5293    0.0000 H   0  0  0  0  0  0  0  0  0  0  0  0
   -2.3178   -4.3632    0.0000 C   0  0  1  0  0  0  0  0  0  0  0  0
   -3.1428   -4.3632    0.0000 C   0  0  0  0  0  0  0  0  0  0  0  0
   -3.5553   -5.0776    0.0000 N   0  0  0  0  0  0  0  0  0  0  0  0
   -4.3803   -5.0776    0.0000 C   0  0  0  0  0  0  0  0  0  0  0  0
   -4.7928   -5.7921    0.0000 C   0  0  0  0  0  0  0  0  0  0  0  0
   -5.6178   -5.7921    0.0000 C   0  0  0  0  0  0  0  0  0  0  0  0
   -6.0303   -5.0776    0.0000 C   0  0  0  0  0  0  0  0  0  0  0  0
   -5.6178   -4.3632    0.0000 C   0  0  0  0  0  0  0  0  0  0  0  0
   -4.7928   -4.3632    0.0000 C   0  0  0  0  0  0  0  0  0  0  0  0
   -4.3803   -3.6487    0.0000 C   0  0  0  0  0  0  0  0  0  0  0  0
   -3.9678   -2.9342    0.0000 N   0  0  0  0  0  0  0  0  0  0  0  0
   -6.0303   -6.5066    0.0000 C   0  0  0  0  0  0  0  0  0  0  0  0
   -5.6178   -7.2210    0.0000 C   0  0  0  0  0  0  0  0  0  0  0  0
   -4.7928   -7.2210    0.0000 S   0  0  0  0  0  0  0  0  0  0  0  0
   -4.3803   -7.9355    0.0000 C   0  0  0  0  0  0  0  0  0  0  0  0
   -6.0303   -7.9355    0.0000 C   0  0  0  0  0  0  0  0  0  0  0  0
   -6.8553   -7.9355    0.0000 C   0  0  0  0  0  0  0  0  0  0  0  0
   -7.2678   -7.2210    0.0000 C   0  0  0  0  0  0  0  0  0  0  0  0
   -6.8553   -6.5066    0.0000 C   0  0  0  0  0  0  0  0  0  0  0  0
    0.4913   -4.3632    0.0000 C   0  0  0  0  0  0  0  0  0  0  0  0
    0.9038   -3.6487    0.0000 O   0  0  0  0  0  0  0  0  0  0  0  0
    0.9038   -5.0776    0.0000 O   0  0  0  0  0  0  0  0  0  0  0  0
    1.7288   -5.0776    0.0000 C   0  0  0  0  0  0  0  0  0  0  0  0
    2.5538   -5.0776    0.0000 C   0  0  0  0  0  0  0  0  0  0  0  0
    1.7288   -5.9026    0.0000 C   0  0  0  0  0  0  0  0  0  0  0  0
    1.7288   -4.2526    0.0000 C   0  0  0  0  0  0  0  0  0  0  0  0
  2  1  1  1  0  0  0
  2  3  1  0  0  0  0
  3  4  1  0  0  0  0
  4  5  1  0  0  0  0
  6  5  1  0  0  0  0
  2  6  1  0  0  0  0
  6  7  1  1  0  0  0
  6  8  1  0  0  0  0
  2  8  1  0  0  0  0
  8  9  1  1  0  0  0
  9 10  1  0  0  0  0
 10 11  1  0  0  0  0
 11 12  2  0  0  0  0
 12 13  1  0  0  0  0
 13 14  2  0  0  0  0
 14 15  1  0  0  0  0
 15 16  2  0  0  0  0
 11 16  1  0  0  0  0
 16 17  1  0  0  0  0
 17 18  3  0  0  0  0
 13 19  1  0  0  0  0
 19 20  2  0  0  0  0
 20 21  1  0  0  0  0
 21 22  1  0  0  0  0
 20 23  1  0  0  0  0
 23 24  2  0  0  0  0
 24 25  1  0  0  0  0
 25 26  2  0  0  0  0
 19 26  1  0  0  0  0
  4 27  1  0  0  0  0
 27 28  2  0  0  0  0
 27 29  1  0  0  0  0
 29 30  1  0  0  0  0
 30 31  1  0  0  0  0
 30 32  1  0  0  0  0
 30 33  1  0  0  0  0
M  END
> <ID>
CPD_2065

$$$$
CPD_2070
  Mrv1822 09091914012D          

 40 45  0  0  1  0            999 V2000
    0.8510    5.1706    0.0000 H   0  0  0  0  0  0  0  0  0  0  0  0
    1.3845    5.7999    0.0000 C   0  0  2  0  0  0  0  0  0  0  0  0
    0.8144    6.3962    0.0000 C   0  0  0  0  0  0  0  0  0  0  0  0
    1.2053    7.1227    0.0000 N   0  0  0  0  0  0  0  0  0  0  0  0
    2.0170    6.9754    0.0000 C   0  0  0  0  0  0  0  0  0  0  0  0
    2.1278    6.1578    0.0000 C   0  0  2  0  0  0  0  0  0  0  0  0
    2.9524    6.1825    0.0000 H   0  0  0  0  0  0  0  0  0  0  0  0
    2.0661    5.3352    0.0000 C   0  0  1  0  0  0  0  0  0  0  0  0
    2.4241    4.5919    0.0000 C   0  0  0  0  0  0  0  0  0  0  0  0
    1.9594    3.9102    0.0000 N   0  0  0  0  0  0  0  0  0  0  0  0
    2.3173    3.1669    0.0000 C   0  0  0  0  0  0  0  0  0  0  0  0
    1.8526    2.4853    0.0000 C   0  0  0  0  0  0  0  0  0  0  0  0
    2.2105    1.7420    0.0000 C   0  0  0  0  0  0  0  0  0  0  0  0
    3.0332    1.6803    0.0000 C   0  0  0  0  0  0  0  0  0  0  0  0
    3.3912    0.9370    0.0000 C   0  0  0  0  0  0  0  0  0  0  0  0
    4.2162    0.9370    0.0000 N   0  0  0  0  0  0  0  0  0  0  0  0
    4.7305    0.2920    0.0000 C   0  0  0  0  0  0  0  0  0  0  0  0
    4.5470   -0.5123    0.0000 C   0  0  0  0  0  0  0  0  0  0  0  0
    3.8037   -0.8703    0.0000 N   0  0  0  0  0  0  0  0  0  0  0  0
    3.0604   -0.5123    0.0000 C   0  0  0  0  0  0  0  0  0  0  0  0
    2.8768    0.2920    0.0000 C   0  0  0  0  0  0  0  0  0  0  0  0
    2.0884    0.5352    0.0000 C   0  0  0  0  0  0  0  0  0  0  0  0
    1.9049    1.3395    0.0000 O   0  0  0  0  0  0  0  0  0  0  0  0
    1.4837   -0.0260    0.0000 C   0  0  0  0  0  0  0  0  0  0  0  0
    1.6673   -0.8303    0.0000 C   0  0  0  0  0  0  0  0  0  0  0  0
    2.4556   -1.0735    0.0000 C   0  0  0  0  0  0  0  0  0  0  0  0
    5.1517   -1.0735    0.0000 C   0  0  0  0  0  0  0  0  0  0  0  0
    5.9401   -0.8303    0.0000 C   0  0  0  0  0  0  0  0  0  0  0  0
    6.1237   -0.0260    0.0000 C   0  0  0  0  0  0  0  0  0  0  0  0
    5.5189    0.5352    0.0000 C   0  0  0  0  0  0  0  0  0  0  0  0
    3.4980    2.3620    0.0000 C   0  0  0  0  0  0  0  0  0  0  0  0
    4.3206    2.3003    0.0000 Cl  0  0  0  0  0  0  0  0  0  0  0  0
    3.1400    3.1053    0.0000 C   0  0  0  0  0  0  0  0  0  0  0  0
    0.8473    7.8660    0.0000 C   0  0  0  0  0  0  0  0  0  0  0  0
    0.0247    7.9276    0.0000 O   0  0  0  0  0  0  0  0  0  0  0  0
    1.3121    8.5476    0.0000 O   0  0  0  0  0  0  0  0  0  0  0  0
    0.9541    9.2909    0.0000 C   0  0  0  0  0  0  0  0  0  0  0  0
    0.5962   10.0342    0.0000 C   0  0  0  0  0  0  0  0  0  0  0  0
    1.6974    9.6489    0.0000 C   0  0  0  0  0  0  0  0  0  0  0  0
    0.2108    8.9330    0.0000 C   0  0  0  0  0  0  0  0  0  0  0  0
  2  1  1  1  0  0  0
  2  3  1  0  0  0  0
  3  4  1  0  0  0  0
  4  5  1  0  0  0  0
  6  5  1  0  0  0  0
  2  6  1  0  0  0  0
  6  7  1  1  0  0  0
  6  8  1  0  0  0  0
  2  8  1  0  0  0  0
  8  9  1  1  0  0  0
  9 10  1  0  0  0  0
 10 11  1  0  0  0  0
 11 12  2  0  0  0  0
 12 13  1  0  0  0  0
 13 14  2  0  0  0  0
 14 15  1  0  0  0  0
 15 16  1  0  0  0  0
 16 17  1  0  0  0  0
 17 18  2  0  0  0  0
 18 19  1  0  0  0  0
 19 20  1  0  0  0  0
 20 21  2  0  0  0  0
 15 21  1  0  0  0  0
 21 22  1  0  0  0  0
 22 23  2  0  0  0  0
 22 24  1  0  0  0  0
 24 25  1  0  0  0  0
 25 26  1  0  0  0  0
 20 26  1  0  0  0  0
 18 27  1  0  0  0  0
 27 28  2  0  0  0  0
 28 29  1  0  0  0  0
 29 30  2  0  0  0  0
 17 30  1  0  0  0  0
 14 31  1  0  0  0  0
 31 32  1  0  0  0  0
 31 33  2  0  0  0  0
 11 33  1  0  0  0  0
  4 34  1  0  0  0  0
 34 35  2  0  0  0  0
 34 36  1  0  0  0  0
 36 37  1  0  0  0  0
 37 38  1  0  0  0  0
 37 39  1  0  0  0  0
 37 40  1  0  0  0  0
M  END
> <ID>
CPD_2070

$$$$
CPD_2075
  Mrv1822 09091914012D          

 39 43  0  0  1  0            999 V2000
    7.6042    1.6119    0.0000 H   0  0  0  0  0  0  0  0  0  0  0  0
    8.2717    1.1270    0.0000 C   0  0  2  0  0  0  0  0  0  0  0  0
    8.8237    1.7401    0.0000 C   0  0  0  0  0  0  0  0  0  0  0  0
    9.5774    1.4045    0.0000 N   0  0  0  0  0  0  0  0  0  0  0  0
    9.4912    0.5840    0.0000 C   0  0  0  0  0  0  0  0  0  0  0  0
    8.6842    0.4125    0.0000 C   0  0  2  0  0  0  0  0  0  0  0  0
    8.7704   -0.4080    0.0000 H   0  0  0  0  0  0  0  0  0  0  0  0
    7.8592    0.4125    0.0000 C   0  0  1  0  0  0  0  0  0  0  0  0
    7.1447   -0.0000    0.0000 C   0  0  0  0  0  0  0  0  0  0  0  0
    6.4302    0.4125    0.0000 N   0  0  0  0  0  0  0  0  0  0  0  0
    5.7158   -0.0000    0.0000 C   0  0  0  0  0  0  0  0  0  0  0  0
    6.1283   -0.7145    0.0000 F   0  0  0  0  0  0  0  0  0  0  0  0
    5.3033    0.7145    0.0000 F   0  0  0  0  0  0  0  0  0  0  0  0
    5.0013   -0.4125    0.0000 C   0  0  0  0  0  0  0  0  0  0  0  0
    5.0013   -1.2375    0.0000 O   0  0  0  0  0  0  0  0  0  0  0  0
    4.2868   -0.0000    0.0000 N   0  0  0  0  0  0  0  0  0  0  0  0
    4.2868    0.8250    0.0000 C   0  0  0  0  0  0  0  0  0  0  0  0
    3.5724    1.2375    0.0000 C   0  0  0  0  0  0  0  0  0  0  0  0
    2.8579    0.8250    0.0000 C   0  0  0  0  0  0  0  0  0  0  0  0
    2.8579    0.0000    0.0000 C   0  0  0  0  0  0  0  0  0  0  0  0
    3.5724   -0.4125    0.0000 C   0  0  0  0  0  0  0  0  0  0  0  0
    2.1434   -0.4125    0.0000 C   0  0  0  0  0  0  0  0  0  0  0  0
    2.1434   -1.2375    0.0000 O   0  0  0  0  0  0  0  0  0  0  0  0
    1.4289   -0.0000    0.0000 C   0  0  0  0  0  0  0  0  0  0  0  0
    0.7145   -0.4125    0.0000 C   0  0  0  0  0  0  0  0  0  0  0  0
   -0.0000    0.0000    0.0000 C   0  0  0  0  0  0  0  0  0  0  0  0
   -0.7145   -0.4125    0.0000 C   0  0  0  0  0  0  0  0  0  0  0  0
   -1.4289    0.0000    0.0000 C   0  0  0  0  0  0  0  0  0  0  0  0
    0.0000    0.8250    0.0000 C   0  0  0  0  0  0  0  0  0  0  0  0
    0.7145    1.2375    0.0000 C   0  0  0  0  0  0  0  0  0  0  0  0
    1.4289    0.8250    0.0000 C   0  0  0  0  0  0  0  0  0  0  0  0
    2.1434    1.2375    0.0000 N   0  0  0  0  0  0  0  0  0  0  0  0
   10.2919    1.8170    0.0000 C   0  0  0  0  0  0  0  0  0  0  0  0
   10.2919    2.6420    0.0000 O   0  0  0  0  0  0  0  0  0  0  0  0
   11.0063    1.4045    0.0000 O   0  0  0  0  0  0  0  0  0  0  0  0
   11.7208    1.8170    0.0000 C   0  0  0  0  0  0  0  0  0  0  0  0
   12.4353    2.2295    0.0000 C   0  0  0  0  0  0  0  0  0  0  0  0
   12.1333    1.1025    0.0000 C   0  0  0  0  0  0  0  0  0  0  0  0
   11.3083    2.5315    0.0000 C   0  0  0  0  0  0  0  0  0  0  0  0
  2  1  1  1  0  0  0
  2  3  1  0  0  0  0
  3  4  1  0  0  0  0
  4  5  1  0  0  0  0
  6  5  1  0  0  0  0
  2  6  1  0  0  0  0
  6  7  1  1  0  0  0
  6  8  1  0  0  0  0
  2  8  1  0  0  0  0
  8  9  1  1  0  0  0
  9 10  1  0  0  0  0
 10 11  1  0  0  0  0
 11 12  1  0  0  0  0
 11 13  1  0  0  0  0
 11 14  1  0  0  0  0
 14 15  2  0  0  0  0
 14 16  1  0  0  0  0
 16 17  1  0  0  0  0
 17 18  1  0  0  0  0
 18 19  1  0  0  0  0
 19 20  2  0  0  0  0
 20 21  1  0  0  0  0
 16 21  1  0  0  0  0
 20 22  1  0  0  0  0
 22 23  2  0  0  0  0
 22 24  1  0  0  0  0
 24 25  2  0  0  0  0
 25 26  1  0  0  0  0
 26 27  1  0  0  0  0
 27 28  1  0  0  0  0
 26 29  2  0  0  0  0
 29 30  1  0  0  0  0
 30 31  2  0  0  0  0
 24 31  1  0  0  0  0
 31 32  1  0  0  0  0
 19 32  1  0  0  0  0
  4 33  1  0  0  0  0
 33 34  2  0  0  0  0
 33 35  1  0  0  0  0
 35 36  1  0  0  0  0
 36 37  1  0  0  0  0
 36 38  1  0  0  0  0
 36 39  1  0  0  0  0
M  END
> <ID>
CPD_2075

$$$$
CPD_2080
  Mrv1822 09091914012D          

 24 27  0  0  1  0            999 V2000
    0.8517   -2.4835    0.0000 H   0  0  0  0  0  0  0  0  0  0  0  0
    0.8517   -1.6585    0.0000 C   0  0  1  0  0  0  0  0  0  0  0  0
    0.1163   -2.0322    0.0000 C   0  0  0  0  0  0  0  0  0  0  0  0
    0.5657   -1.2419    0.0000 C   0  0  2  0  0  0  0  0  0  0  0  0
   -0.2319   -1.0310    0.0000 H   0  0  0  0  0  0  0  0  0  0  0  0
    1.3012   -1.6156    0.0000 C   0  0  0  0  0  0  0  0  0  0  0  0
    2.0368   -1.2419    0.0000 C   0  0  2  0  0  0  0  0  0  0  0  0
    2.8344   -1.4529    0.0000 C   0  0  0  0  0  0  0  0  0  0  0  0
    1.5873   -2.0322    0.0000 C   0  0  0  0  0  0  0  0  0  0  0  0
    2.0368   -0.4945    0.0000 C   0  0  0  0  0  0  0  0  0  0  0  0
    1.3012   -0.1208    0.0000 C   0  0  2  0  0  0  0  0  0  0  0  0
    0.8517   -0.9111    0.0000 C   0  0  0  0  0  0  0  0  0  0  0  0
    0.5657   -0.4945    0.0000 C   0  0  0  0  0  0  0  0  0  0  0  0
    1.3012    0.7042    0.0000 N   0  0  0  0  0  0  0  0  0  0  0  0
    0.5867    1.1167    0.0000 C   0  0  0  0  0  0  0  0  0  0  0  0
   -0.1278    0.7042    0.0000 C   0  0  0  0  0  0  0  0  0  0  0  0
   -0.8422    1.1166    0.0000 C   0  0  0  0  0  0  0  0  0  0  0  0
   -0.8423    1.9416    0.0000 C   0  0  0  0  0  0  0  0  0  0  0  0
   -0.1278    2.3542    0.0000 C   0  0  0  0  0  0  0  0  0  0  0  0
   -0.1278    3.1792    0.0000 C   0  0  0  0  0  0  0  0  0  0  0  0
   -0.8423    3.5916    0.0000 O   0  0  0  0  0  0  0  0  0  0  0  0
    0.5866    3.5917    0.0000 O   0  0  0  0  0  0  0  0  0  0  0  0
    0.5867    1.9417    0.0000 C   0  0  0  0  0  0  0  0  0  0  0  0
    1.3011    2.3542    0.0000 F   0  0  0  0  0  0  0  0  0  0  0  0
  2  1  1  1  0  0  0
  2  3  1  0  0  0  0
  4  3  1  0  0  0  0
  4  5  1  6  0  0  0
  4  6  1  0  0  0  0
  7  6  1  0  0  0  0
  7  8  1  6  0  0  0
  7  9  1  0  0  0  0
  2  9  1  0  0  0  0
 11 13  1  0  0  0  0
 11 10  1  0  0  0  0
 11 12  1  0  0  0  0
  2 12  1  0  0  0  0
  7 10  1  0  0  0  0
  4 13  1  0  0  0  0
 11 14  1  1  0  0  0
 14 15  1  0  0  0  0
 15 16  2  0  0  0  0
 16 17  1  0  0  0  0
 17 18  2  0  0  0  0
 18 19  1  0  0  0  0
 19 20  1  0  0  0  0
 20 21  1  0  0  0  0
 20 22  2  0  0  0  0
 19 23  2  0  0  0  0
 15 23  1  0  0  0  0
 23 24  1  0  0  0  0
M  END
> <ID>
CPD_2080

$$$$
CPD_2085
  Mrv1822 09091914012D          

 25 28  0  0  1  0            999 V2000
    0.8517   -2.4835    0.0000 H   0  0  0  0  0  0  0  0  0  0  0  0
    0.8517   -1.6585    0.0000 C   0  0  1  0  0  0  0  0  0  0  0  0
    0.1163   -2.0322    0.0000 C   0  0  0  0  0  0  0  0  0  0  0  0
    0.5657   -1.2419    0.0000 C   0  0  2  0  0  0  0  0  0  0  0  0
   -0.2319   -1.0310    0.0000 H   0  0  0  0  0  0  0  0  0  0  0  0
    1.3012   -1.6156    0.0000 C   0  0  0  0  0  0  0  0  0  0  0  0
    2.0368   -1.2419    0.0000 C   0  0  2  0  0  0  0  0  0  0  0  0
    2.8344   -1.4529    0.0000 C   0  0  0  0  0  0  0  0  0  0  0  0
    1.5873   -2.0322    0.0000 C   0  0  0  0  0  0  0  0  0  0  0  0
    2.0368   -0.4945    0.0000 C   0  0  0  0  0  0  0  0  0  0  0  0
    1.3012   -0.1208    0.0000 C   0  0  2  0  0  0  0  0  0  0  0  0
    0.8517   -0.9111    0.0000 C   0  0  0  0  0  0  0  0  0  0  0  0
    0.5657   -0.4945    0.0000 C   0  0  0  0  0  0  0  0  0  0  0  0
    1.3012    0.7042    0.0000 N   0  0  0  0  0  0  0  0  0  0  0  0
    2.0156    1.1167    0.0000 C   0  0  0  0  0  0  0  0  0  0  0  0
    2.0156    1.9417    0.0000 C   0  0  0  0  0  0  0  0  0  0  0  0
    2.7301    2.3542    0.0000 C   0  0  0  0  0  0  0  0  0  0  0  0
    3.4446    1.9418    0.0000 C   0  0  0  0  0  0  0  0  0  0  0  0
    3.4446    1.1168    0.0000 C   0  0  0  0  0  0  0  0  0  0  0  0
    2.7301    0.7042    0.0000 C   0  0  0  0  0  0  0  0  0  0  0  0
    4.1590    2.3543    0.0000 C   0  0  0  0  0  0  0  0  0  0  0  0
    4.8735    1.9418    0.0000 O   0  0  0  0  0  0  0  0  0  0  0  0
    4.1590    3.1793    0.0000 O   0  0  0  0  0  0  0  0  0  0  0  0
    4.8735    3.5918    0.0000 C   0  0  0  0  0  0  0  0  0  0  0  0
    4.8734    4.4168    0.0000 C   0  0  0  0  0  0  0  0  0  0  0  0
  2  1  1  1  0  0  0
  2  3  1  0  0  0  0
  4  3  1  0  0  0  0
  4  5  1  6  0  0  0
  4  6  1  0  0  0  0
  7  6  1  0  0  0  0
  7  8  1  6  0  0  0
  7  9  1  0  0  0  0
  2  9  1  0  0  0  0
 11 13  1  0  0  0  0
 11 10  1  0  0  0  0
 11 12  1  0  0  0  0
  2 12  1  0  0  0  0
  7 10  1  0  0  0  0
  4 13  1  0  0  0  0
 11 14  1  1  0  0  0
 14 15  1  0  0  0  0
 15 16  2  0  0  0  0
 16 17  1  0  0  0  0
 17 18  2  0  0  0  0
 18 19  1  0  0  0  0
 19 20  2  0  0  0  0
 15 20  1  0  0  0  0
 18 21  1  0  0  0  0
 21 22  2  0  0  0  0
 21 23  1  0  0  0  0
 23 24  1  0  0  0  0
 24 25  1  0  0  0  0
M  END
> <ID>
CPD_2085

$$$$
CPD_2090
  Mrv1822 09091914012D          

 24 26  0  0  0  0            999 V2000
    0.9909   -3.0425    0.0000 C   0  0  0  0  0  0  0  0  0  0  0  0
    0.9909   -3.8675    0.0000 C   0  0  0  0  0  0  0  0  0  0  0  0
    1.7054   -4.2800    0.0000 C   0  0  0  0  0  0  0  0  0  0  0  0
    1.7054   -5.1050    0.0000 N   0  0  0  0  0  0  0  0  0  0  0  0
    2.3728   -5.5899    0.0000 C   0  0  0  0  0  0  0  0  0  0  0  0
    2.1179   -6.3745    0.0000 C   0  0  0  0  0  0  0  0  0  0  0  0
    2.6028   -7.0420    0.0000 N   0  0  0  0  0  0  0  0  0  0  0  0
    3.4233   -6.9557    0.0000 C   0  0  0  0  0  0  0  0  0  0  0  0
    3.8358   -6.2413    0.0000 N   0  0  0  0  0  0  0  0  0  0  0  0
    4.6427   -6.4128    0.0000 N   0  0  0  0  0  0  0  0  0  0  0  0
    4.7290   -7.2333    0.0000 C   0  0  0  0  0  0  0  0  0  0  0  0
    5.4434   -7.6458    0.0000 S   0  0  0  0  0  0  0  0  0  0  0  0
    6.1579   -7.2333    0.0000 C   0  0  0  0  0  0  0  0  0  0  0  0
    6.8724   -7.6458    0.0000 C   0  0  0  0  0  0  0  0  0  0  0  0
    7.5869   -7.2333    0.0000 C   0  0  0  0  0  0  0  0  0  0  0  0
    7.5869   -6.4083    0.0000 Cl  0  0  0  0  0  0  0  0  0  0  0  0
    8.3013   -7.6458    0.0000 C   0  0  0  0  0  0  0  0  0  0  0  0
    8.3013   -8.4708    0.0000 C   0  0  0  0  0  0  0  0  0  0  0  0
    7.5869   -8.8833    0.0000 C   0  0  0  0  0  0  0  0  0  0  0  0
    7.5869   -9.7083    0.0000 Cl  0  0  0  0  0  0  0  0  0  0  0  0
    6.8724   -8.4708    0.0000 C   0  0  0  0  0  0  0  0  0  0  0  0
    3.9753   -7.5688    0.0000 S   0  0  0  0  0  0  0  0  0  0  0  0
    1.2929   -6.3745    0.0000 C   0  0  0  0  0  0  0  0  0  0  0  0
    1.0379   -5.5899    0.0000 N   0  0  0  0  0  0  0  0  0  0  0  0
  1  2  1  0  0  0  0
  2  3  1  0  0  0  0
  3  4  1  0  0  0  0
  4  5  1  0  0  0  0
  5  6  2  0  0  0  0
  6  7  1  0  0  0  0
  7  8  1  0  0  0  0
  8  9  2  0  0  0  0
  9 10  1  0  0  0  0
 10 11  2  0  0  0  0
 11 12  1  0  0  0  0
 12 13  1  0  0  0  0
 13 14  1  0  0  0  0
 14 15  2  0  0  0  0
 15 16  1  0  0  0  0
 15 17  1  0  0  0  0
 17 18  2  0  0  0  0
 18 19  1  0  0  0  0
 19 20  1  0  0  0  0
 19 21  2  0  0  0  0
 14 21  1  0  0  0  0
 11 22  1  0  0  0  0
  8 22  1  0  0  0  0
  6 23  1  0  0  0  0
 23 24  2  0  0  0  0
  4 24  1  0  0  0  0
M  END
> <ID>
CPD_2090

$$$$
CPD_2095
  Mrv1822 09091914012D          

 29 32  0  0  0  0            999 V2000
   -2.6909    0.0165    0.0000 C   0  0  0  0  0  0  0  0  0  0  0  0
   -1.8659    0.0165    0.0000 O   0  0  0  0  0  0  0  0  0  0  0  0
   -1.4534   -0.6979    0.0000 C   0  0  0  0  0  0  0  0  0  0  0  0
   -1.8659   -1.4124    0.0000 O   0  0  0  0  0  0  0  0  0  0  0  0
   -0.6284   -0.6979    0.0000 C   0  0  0  0  0  0  0  0  0  0  0  0
   -0.1435   -1.3654    0.0000 C   0  0  0  0  0  0  0  0  0  0  0  0
    0.6411   -1.1104    0.0000 C   0  0  0  0  0  0  0  0  0  0  0  0
    0.6411   -0.2854    0.0000 C   0  0  0  0  0  0  0  0  0  0  0  0
   -0.1435   -0.0305    0.0000 O   0  0  0  0  0  0  0  0  0  0  0  0
    1.3556    0.1271    0.0000 N   0  0  0  0  0  0  0  0  0  0  0  0
    2.0701   -0.2854    0.0000 C   0  0  0  0  0  0  0  0  0  0  0  0
    2.0701   -1.1104    0.0000 C   0  0  0  0  0  0  0  0  0  0  0  0
    2.7845   -1.5229    0.0000 N   0  0  0  0  0  0  0  0  0  0  0  0
    3.4990   -1.1104    0.0000 C   0  0  0  0  0  0  0  0  0  0  0  0
    3.5852   -0.2900    0.0000 N   0  0  0  0  0  0  0  0  0  0  0  0
    4.3922   -0.1184    0.0000 N   0  0  0  0  0  0  0  0  0  0  0  0
    4.8047   -0.8329    0.0000 C   0  0  0  0  0  0  0  0  0  0  0  0
    5.6252   -0.9191    0.0000 S   0  0  0  0  0  0  0  0  0  0  0  0
    6.1101   -0.2517    0.0000 C   0  0  0  0  0  0  0  0  0  0  0  0
    6.9306   -0.3379    0.0000 C   0  0  0  0  0  0  0  0  0  0  0  0
    7.4155    0.3295    0.0000 C   0  0  0  0  0  0  0  0  0  0  0  0
    7.0800    1.0832    0.0000 Cl  0  0  0  0  0  0  0  0  0  0  0  0
    8.2360    0.2433    0.0000 C   0  0  0  0  0  0  0  0  0  0  0  0
    8.5716   -0.5104    0.0000 C   0  0  0  0  0  0  0  0  0  0  0  0
    8.0866   -1.1778    0.0000 C   0  0  0  0  0  0  0  0  0  0  0  0
    8.4222   -1.9315    0.0000 Cl  0  0  0  0  0  0  0  0  0  0  0  0
    7.2661   -1.0916    0.0000 C   0  0  0  0  0  0  0  0  0  0  0  0
    4.2527   -1.4460    0.0000 S   0  0  0  0  0  0  0  0  0  0  0  0
    1.3556   -1.5229    0.0000 C   0  0  0  0  0  0  0  0  0  0  0  0
  1  2  1  0  0  0  0
  2  3  1  0  0  0  0
  3  4  2  0  0  0  0
  3  5  1  0  0  0  0
  5  6  2  0  0  0  0
  6  7  1  0  0  0  0
  7  8  2  0  0  0  0
  8  9  1  0  0  0  0
  5  9  1  0  0  0  0
  8 10  1  0  0  0  0
 10 11  2  0  0  0  0
 11 12  1  0  0  0  0
 12 13  1  0  0  0  0
 13 14  1  0  0  0  0
 14 15  2  0  0  0  0
 15 16  1  0  0  0  0
 16 17  2  0  0  0  0
 17 18  1  0  0  0  0
 18 19  1  0  0  0  0
 19 20  1  0  0  0  0
 20 21  2  0  0  0  0
 21 22  1  0  0  0  0
 21 23  1  0  0  0  0
 23 24  2  0  0  0  0
 24 25  1  0  0  0  0
 25 26  1  0  0  0  0
 25 27  2  0  0  0  0
 20 27  1  0  0  0  0
 17 28  1  0  0  0  0
 14 28  1  0  0  0  0
 12 29  2  0  0  0  0
  7 29  1  0  0  0  0
M  END
> <ID>
CPD_2095

$$$$
CPD_2100
  Mrv1822 09091914012D          

 32 34  0  0  0  0            999 V2000
    1.4289    0.8250    0.0000 C   0  0  0  0  0  0  0  0  0  0  0  0
    1.4289   -0.0000    0.0000 O   0  0  0  0  0  0  0  0  0  0  0  0
    0.7145   -0.4125    0.0000 C   0  0  0  0  0  0  0  0  0  0  0  0
    0.0000    0.0000    0.0000 O   0  0  0  0  0  0  0  0  0  0  0  0
    0.7145   -1.2375    0.0000 C   0  0  0  0  0  0  0  0  0  0  0  0
    0.0470   -1.7224    0.0000 C   0  0  0  0  0  0  0  0  0  0  0  0
   -0.7376   -1.4675    0.0000 N   0  0  0  0  0  0  0  0  0  0  0  0
   -0.9091   -0.6605    0.0000 C   0  0  0  0  0  0  0  0  0  0  0  0
   -1.6937   -0.4056    0.0000 C   0  0  0  0  0  0  0  0  0  0  0  0
   -1.8653    0.4014    0.0000 C   0  0  0  0  0  0  0  0  0  0  0  0
   -1.2522    0.9534    0.0000 C   0  0  0  0  0  0  0  0  0  0  0  0
   -0.4675    0.6985    0.0000 C   0  0  0  0  0  0  0  0  0  0  0  0
    0.1455    1.2505    0.0000 C   0  0  0  0  0  0  0  0  0  0  0  0
   -0.0260    2.0575    0.0000 C   0  0  0  0  0  0  0  0  0  0  0  0
    0.5871    2.6095    0.0000 O   0  0  0  0  0  0  0  0  0  0  0  0
   -0.8106    2.3124    0.0000 O   0  0  0  0  0  0  0  0  0  0  0  0
   -0.2960   -0.1085    0.0000 C   0  0  0  0  0  0  0  0  0  0  0  0
   -2.6499    0.6563    0.0000 C   0  0  0  0  0  0  0  0  0  0  0  0
   -3.4345    0.9113    0.0000 F   0  0  0  0  0  0  0  0  0  0  0  0
   -2.3949    1.4410    0.0000 F   0  0  0  0  0  0  0  0  0  0  0  0
   -2.9048   -0.1283    0.0000 F   0  0  0  0  0  0  0  0  0  0  0  0
    0.3020   -2.5070    0.0000 N   0  0  0  0  0  0  0  0  0  0  0  0
    1.1270   -2.5070    0.0000 N   0  0  0  0  0  0  0  0  0  0  0  0
    1.3819   -1.7224    0.0000 N   0  0  0  0  0  0  0  0  0  0  0  0
   -0.1830   -3.1745    0.0000 C   0  0  0  0  0  0  0  0  0  0  0  0
    0.1526   -3.9282    0.0000 C   0  0  0  0  0  0  0  0  0  0  0  0
    0.9731   -4.0144    0.0000 O   0  0  0  0  0  0  0  0  0  0  0  0
    1.3086   -4.7681    0.0000 C   0  0  0  0  0  0  0  0  0  0  0  0
   -0.3323   -4.5956    0.0000 C   0  0  0  0  0  0  0  0  0  0  0  0
   -1.1528   -4.5094    0.0000 C   0  0  0  0  0  0  0  0  0  0  0  0
   -1.4884   -3.7557    0.0000 C   0  0  0  0  0  0  0  0  0  0  0  0
   -1.0034   -3.0882    0.0000 C   0  0  0  0  0  0  0  0  0  0  0  0
  1  2  1  0  0  0  0
  2  3  1  0  0  0  0
  3  4  2  0  0  0  0
  3  5  1  0  0  0  0
  5  6  2  0  0  0  0
  6  7  1  0  0  0  0
  7  8  1  0  0  0  0
  8  9  2  0  0  0  0
  9 10  1  0  0  0  0
 10 11  2  0  0  0  0
 11 12  1  0  0  0  0
 12 13  1  0  0  0  0
 13 14  1  0  0  0  0
 14 15  1  0  0  0  0
 14 16  2  0  0  0  0
 12 17  2  0  0  0  0
  8 17  1  0  0  0  0
 10 18  1  0  0  0  0
 18 19  1  0  0  0  0
 18 20  1  0  0  0  0
 18 21  1  0  0  0  0
  6 22  1  0  0  0  0
 22 23  1  0  0  0  0
 23 24  2  0  0  0  0
  5 24  1  0  0  0  0
 22 25  1  0  0  0  0
 25 26  2  0  0  0  0
 26 27  1  0  0  0  0
 27 28  1  0  0  0  0
 26 29  1  0  0  0  0
 29 30  2  0  0  0  0
 30 31  1  0  0  0  0
 31 32  2  0  0  0  0
 25 32  1  0  0  0  0
M  END
> <ID>
CPD_2100

$$$$
CPD_2105
  Mrv1822 09091914012D          

 38 41  0  0  0  0            999 V2000
    0.0000    0.8250    0.0000 C   0  0  0  0  0  0  0  0  0  0  0  0
    0.0000   -0.0000    0.0000 O   0  0  0  0  0  0  0  0  0  0  0  0
    0.7145   -0.4125    0.0000 C   0  0  0  0  0  0  0  0  0  0  0  0
    1.4289   -0.0000    0.0000 O   0  0  0  0  0  0  0  0  0  0  0  0
    0.7145   -1.2375    0.0000 C   0  0  0  0  0  0  0  0  0  0  0  0
    0.0470   -1.7224    0.0000 C   0  0  0  0  0  0  0  0  0  0  0  0
   -0.7376   -1.4675    0.0000 N   0  0  0  0  0  0  0  0  0  0  0  0
   -1.3507   -2.0195    0.0000 C   0  0  0  0  0  0  0  0  0  0  0  0
   -0.7987   -2.6326    0.0000 F   0  0  0  0  0  0  0  0  0  0  0  0
   -1.9027   -1.4064    0.0000 F   0  0  0  0  0  0  0  0  0  0  0  0
   -1.9638   -2.5715    0.0000 C   0  0  0  0  0  0  0  0  0  0  0  0
   -1.7923   -3.3785    0.0000 C   0  0  0  0  0  0  0  0  0  0  0  0
   -2.4053   -3.9306    0.0000 C   0  0  0  0  0  0  0  0  0  0  0  0
   -3.1900   -3.6756    0.0000 C   0  0  0  0  0  0  0  0  0  0  0  0
   -3.3615   -2.8686    0.0000 C   0  0  0  0  0  0  0  0  0  0  0  0
   -2.7484   -2.3166    0.0000 C   0  0  0  0  0  0  0  0  0  0  0  0
   -3.8031   -4.2276    0.0000 S   0  0  0  0  0  0  0  0  0  0  0  0
   -3.2510   -4.8407    0.0000 O   0  0  0  0  0  0  0  0  0  0  0  0
   -4.3551   -3.6146    0.0000 O   0  0  0  0  0  0  0  0  0  0  0  0
   -4.4162   -4.7797    0.0000 N   0  0  0  0  0  0  0  0  0  0  0  0
   -5.2008   -4.5247    0.0000 C   0  0  0  0  0  0  0  0  0  0  0  0
   -5.8139   -5.0768    0.0000 C   0  0  0  0  0  0  0  0  0  0  0  0
   -5.6423   -5.8837    0.0000 C   0  0  0  0  0  0  0  0  0  0  0  0
   -6.2554   -6.4358    0.0000 C   0  0  0  0  0  0  0  0  0  0  0  0
   -7.0401   -6.1808    0.0000 C   0  0  0  0  0  0  0  0  0  0  0  0
   -7.2116   -5.3739    0.0000 C   0  0  0  0  0  0  0  0  0  0  0  0
   -6.5985   -4.8218    0.0000 C   0  0  0  0  0  0  0  0  0  0  0  0
    0.3020   -2.5070    0.0000 N   0  0  0  0  0  0  0  0  0  0  0  0
    1.1270   -2.5070    0.0000 N   0  0  0  0  0  0  0  0  0  0  0  0
    1.3819   -1.7224    0.0000 N   0  0  0  0  0  0  0  0  0  0  0  0
   -0.1830   -3.1745    0.0000 C   0  0  0  0  0  0  0  0  0  0  0  0
    0.1526   -3.9282    0.0000 C   0  0  0  0  0  0  0  0  0  0  0  0
    0.9731   -4.0144    0.0000 O   0  0  0  0  0  0  0  0  0  0  0  0
    1.4580   -3.3470    0.0000 C   0  0  0  0  0  0  0  0  0  0  0  0
   -0.3323   -4.5956    0.0000 C   0  0  0  0  0  0  0  0  0  0  0  0
   -1.1528   -4.5094    0.0000 C   0  0  0  0  0  0  0  0  0  0  0  0
   -1.4884   -3.7557    0.0000 C   0  0  0  0  0  0  0  0  0  0  0  0
   -1.0034   -3.0882    0.0000 C   0  0  0  0  0  0  0  0  0  0  0  0
  1  2  1  0  0  0  0
  2  3  1  0  0  0  0
  3  4  2  0  0  0  0
  3  5  1  0  0  0  0
  5  6  2  0  0  0  0
  6  7  1  0  0  0  0
  7  8  1  0  0  0  0
  8  9  1  0  0  0  0
  8 10  1  0  0  0  0
  8 11  1  0  0  0  0
 11 12  2  0  0  0  0
 12 13  1  0  0  0  0
 13 14  2  0  0  0  0
 14 15  1  0  0  0  0
 15 16  2  0  0  0  0
 11 16  1  0  0  0  0
 14 17  1  0  0  0  0
 17 18  2  0  0  0  0
 17 19  2  0  0  0  0
 17 20  1  0  0  0  0
 20 21  1  0  0  0  0
 21 22  1  0  0  0  0
 22 23  2  0  0  0  0
 23 24  1  0  0  0  0
 24 25  2  0  0  0  0
 25 26  1  0  0  0  0
 26 27  2  0  0  0  0
 22 27  1  0  0  0  0
  6 28  1  0  0  0  0
 28 29  1  0  0  0  0
 29 30  2  0  0  0  0
  5 30  1  0  0  0  0
 28 31  1  0  0  0  0
 31 32  2  0  0  0  0
 32 33  1  0  0  0  0
 33 34  1  0  0  0  0
 32 35  1  0  0  0  0
 35 36  2  0  0  0  0
 36 37  1  0  0  0  0
 37 38  2  0  0  0  0
 31 38  1  0  0  0  0
M  END
> <ID>
CPD_2105

$$$$
CPD_2110
  Mrv1822 09091914012D          

 29 31  0  0  0  0            999 V2000
   -2.8579   -1.6500    0.0000 N   0  0  0  0  0  0  0  0  0  0  0  0
   -2.8579   -2.4750    0.0000 C   0  0  0  0  0  0  0  0  0  0  0  0
   -2.1434   -2.8875    0.0000 C   0  0  0  0  0  0  0  0  0  0  0  0
   -1.4289   -2.4750    0.0000 N   0  0  0  0  0  0  0  0  0  0  0  0
   -0.7145   -2.8875    0.0000 C   0  0  0  0  0  0  0  0  0  0  0  0
    0.0000   -2.4750    0.0000 C   0  0  0  0  0  0  0  0  0  0  0  0
    0.0000   -1.6500    0.0000 N   0  0  0  0  0  0  0  0  0  0  0  0
    0.7145   -1.2375    0.0000 C   0  0  0  0  0  0  0  0  0  0  0  0
    1.4289   -1.6500    0.0000 O   0  0  0  0  0  0  0  0  0  0  0  0
    0.7145   -0.4125    0.0000 C   0  0  0  0  0  0  0  0  0  0  0  0
    0.0000   -0.0000    0.0000 C   0  0  0  0  0  0  0  0  0  0  0  0
    0.0000    0.8250    0.0000 C   0  0  0  0  0  0  0  0  0  0  0  0
    0.7145    1.2375    0.0000 C   0  0  0  0  0  0  0  0  0  0  0  0
    1.4289    0.8250    0.0000 C   0  0  0  0  0  0  0  0  0  0  0  0
    1.4289   -0.0000    0.0000 C   0  0  0  0  0  0  0  0  0  0  0  0
    2.1434   -0.4125    0.0000 C   0  0  0  0  0  0  0  0  0  0  0  0
    2.8579   -0.8250    0.0000 F   0  0  0  0  0  0  0  0  0  0  0  0
    1.7309   -1.1270    0.0000 F   0  0  0  0  0  0  0  0  0  0  0  0
    2.5559    0.3020    0.0000 F   0  0  0  0  0  0  0  0  0  0  0  0
    0.7145   -2.8875    0.0000 C   0  0  0  0  0  0  0  0  0  0  0  0
    0.7145   -3.7125    0.0000 C   0  0  0  0  0  0  0  0  0  0  0  0
    0.0000   -4.1250    0.0000 C   0  0  0  0  0  0  0  0  0  0  0  0
   -0.7145   -3.7125    0.0000 C   0  0  0  0  0  0  0  0  0  0  0  0
   -2.1434   -3.7125    0.0000 C   0  0  0  0  0  0  0  0  0  0  0  0
   -2.8579   -4.1250    0.0000 C   0  0  0  0  0  0  0  0  0  0  0  0
   -3.5724   -3.7125    0.0000 C   0  0  0  0  0  0  0  0  0  0  0  0
   -4.2868   -4.1250    0.0000 C   0  0  0  0  0  0  0  0  0  0  0  0
   -4.2868   -4.9500    0.0000 O   0  0  0  0  0  0  0  0  0  0  0  0
   -3.5724   -2.8875    0.0000 C   0  0  0  0  0  0  0  0  0  0  0  0
  1  2  1  0  0  0  0
  2  3  2  0  0  0  0
  3  4  1  0  0  0  0
  4  5  1  0  0  0  0
  5  6  2  0  0  0  0
  6  7  1  0  0  0  0
  7  8  1  0  0  0  0
  8  9  2  0  0  0  0
  8 10  1  0  0  0  0
 10 11  2  0  0  0  0
 11 12  1  0  0  0  0
 12 13  2  0  0  0  0
 13 14  1  0  0  0  0
 14 15  2  0  0  0  0
 10 15  1  0  0  0  0
 15 16  1  0  0  0  0
 16 17  1  0  0  0  0
 16 18  1  0  0  0  0
 16 19  1  0  0  0  0
  6 20  1  0  0  0  0
 20 21  2  0  0  0  0
 21 22  1  0  0  0  0
 22 23  2  0  0  0  0
  5 23  1  0  0  0  0
  3 24  1  0  0  0  0
 24 25  2  0  0  0  0
 25 26  1  0  0  0  0
 26 27  1  0  0  0  0
 27 28  1  0  0  0  0
 26 29  2  0  0  0  0
  2 29  1  0  0  0  0
M  END
> <ID>
CPD_2110

$$$$
CPD_2115
  Mrv1822 09091914012D          

 32 35  0  0  0  0            999 V2000
   -1.5269   -0.5558    0.0000 C   0  0  0  0  0  0  0  0  0  0  0  0
   -0.7145   -0.4125    0.0000 C   0  0  0  0  0  0  0  0  0  0  0  0
   -0.9966    0.3627    0.0000 C   0  0  0  0  0  0  0  0  0  0  0  0
   -0.7145   -1.2375    0.0000 C   0  0  0  0  0  0  0  0  0  0  0  0
    0.0000   -1.6500    0.0000 C   0  0  0  0  0  0  0  0  0  0  0  0
    0.0000   -2.4750    0.0000 O   0  0  0  0  0  0  0  0  0  0  0  0
    0.7145   -1.2375    0.0000 C   0  0  0  0  0  0  0  0  0  0  0  0
    0.7145   -0.4125    0.0000 C   0  0  0  0  0  0  0  0  0  0  0  0
    0.0000   -0.0000    0.0000 C   0  0  0  0  0  0  0  0  0  0  0  0
    1.4289   -0.0000    0.0000 N   0  0  0  0  0  0  0  0  0  0  0  0
    2.1434   -0.4125    0.0000 C   0  0  0  0  0  0  0  0  0  0  0  0
    2.1434   -1.2375    0.0000 C   0  0  0  0  0  0  0  0  0  0  0  0
    1.4289   -1.6500    0.0000 C   0  0  0  0  0  0  0  0  0  0  0  0
    1.4289   -2.4750    0.0000 C   0  0  0  0  0  0  0  0  0  0  0  0
    2.1434   -2.8875    0.0000 C   0  0  0  0  0  0  0  0  0  0  0  0
    2.1434   -3.7125    0.0000 C   0  0  0  0  0  0  0  0  0  0  0  0
    1.4289   -4.1250    0.0000 C   0  0  0  0  0  0  0  0  0  0  0  0
    1.4289   -4.9500    0.0000 N   0  0  0  0  0  0  0  0  0  0  0  0
    2.1434   -5.3625    0.0000 C   0  0  0  0  0  0  0  0  0  0  0  0
    2.8579   -4.9500    0.0000 C   0  0  0  0  0  0  0  0  0  0  0  0
    2.8579   -4.1250    0.0000 N   0  0  0  0  0  0  0  0  0  0  0  0
    3.5724   -5.3625    0.0000 C   0  0  0  0  0  0  0  0  0  0  0  0
    3.5724   -6.1875    0.0000 C   0  0  0  0  0  0  0  0  0  0  0  0
    2.8579   -6.6000    0.0000 C   0  0  0  0  0  0  0  0  0  0  0  0
    2.8579   -7.4250    0.0000 C   0  0  0  0  0  0  0  0  0  0  0  0
    3.5724   -7.8375    0.0000 O   0  0  0  0  0  0  0  0  0  0  0  0
    2.1434   -6.1875    0.0000 C   0  0  0  0  0  0  0  0  0  0  0  0
    0.7145   -3.7125    0.0000 C   0  0  0  0  0  0  0  0  0  0  0  0
    0.7145   -2.8875    0.0000 C   0  0  0  0  0  0  0  0  0  0  0  0
    2.8579   -0.0000    0.0000 C   0  0  0  0  0  0  0  0  0  0  0  0
    3.5724   -0.4125    0.0000 O   0  0  0  0  0  0  0  0  0  0  0  0
    2.8579    0.8250    0.0000 O   0  0  0  0  0  0  0  0  0  0  0  0
  1  2  1  0  0  0  0
  2  3  1  0  0  0  0
  2  4  1  0  0  0  0
  4  5  1  0  0  0  0
  5  6  2  0  0  0  0
  5  7  1  0  0  0  0
  7  8  2  0  0  0  0
  8  9  1  0  0  0  0
  2  9  1  0  0  0  0
  8 10  1  0  0  0  0
 10 11  1  0  0  0  0
 11 12  2  0  0  0  0
 12 13  1  0  0  0  0
  7 13  1  0  0  0  0
 13 14  1  0  0  0  0
 14 15  2  0  0  0  0
 15 16  1  0  0  0  0
 16 17  2  0  0  0  0
 17 18  1  0  0  0  0
 18 19  1  0  0  0  0
 19 20  2  0  0  0  0
 20 21  1  0  0  0  0
 20 22  1  0  0  0  0
 22 23  2  0  0  0  0
 23 24  1  0  0  0  0
 24 25  1  0  0  0  0
 25 26  1  0  0  0  0
 24 27  2  0  0  0  0
 19 27  1  0  0  0  0
 17 28  1  0  0  0  0
 28 29  2  0  0  0  0
 14 29  1  0  0  0  0
 11 30  1  0  0  0  0
 30 31  1  0  0  0  0
 30 32  2  0  0  0  0
M  END
> <ID>
CPD_2115

$$$$
CPD_2120
  Mrv1822 09091914012D          

 20 22  0  0  0  0            999 V2000
   -1.4534   -0.6979    0.0000 C   0  0  0  0  0  0  0  0  0  0  0  0
   -0.6284   -0.6979    0.0000 C   0  0  0  0  0  0  0  0  0  0  0  0
   -0.1435   -1.3654    0.0000 N   0  0  0  0  0  0  0  0  0  0  0  0
    0.6411   -1.1104    0.0000 C   0  0  0  0  0  0  0  0  0  0  0  0
    0.6411   -0.2854    0.0000 C   0  0  0  0  0  0  0  0  0  0  0  0
   -0.1435   -0.0305    0.0000 N   0  0  0  0  0  0  0  0  0  0  0  0
    1.3556    0.1271    0.0000 C   0  0  0  0  0  0  0  0  0  0  0  0
    1.3556    0.9521    0.0000 N   0  0  0  0  0  0  0  0  0  0  0  0
    0.6411    1.3646    0.0000 C   0  0  0  0  0  0  0  0  0  0  0  0
    0.6411    2.1896    0.0000 C   0  0  0  0  0  0  0  0  0  0  0  0
    1.3556    2.6021    0.0000 N   0  0  0  0  0  0  0  0  0  0  0  0
   -0.0734    2.6021    0.0000 C   0  0  0  0  0  0  0  0  0  0  0  0
   -0.7878    2.1896    0.0000 C   0  0  0  0  0  0  0  0  0  0  0  0
   -0.7878    1.3646    0.0000 C   0  0  0  0  0  0  0  0  0  0  0  0
   -1.5023    0.9521    0.0000 C   0  0  0  0  0  0  0  0  0  0  0  0
   -1.5023    0.1271    0.0000 O   0  0  0  0  0  0  0  0  0  0  0  0
   -0.0734    0.9521    0.0000 C   0  0  0  0  0  0  0  0  0  0  0  0
    2.0701   -0.2854    0.0000 C   0  0  0  0  0  0  0  0  0  0  0  0
    2.0701   -1.1104    0.0000 N   0  0  0  0  0  0  0  0  0  0  0  0
    1.3556   -1.5229    0.0000 C   0  0  0  0  0  0  0  0  0  0  0  0
  1  2  1  0  0  0  0
  2  3  2  0  0  0  0
  3  4  1  0  0  0  0
  4  5  2  0  0  0  0
  5  6  1  0  0  0  0
  2  6  1  0  0  0  0
  5  7  1  0  0  0  0
  7  8  1  0  0  0  0
  8  9  1  0  0  0  0
  9 10  2  0  0  0  0
 10 11  1  0  0  0  0
 10 12  1  0  0  0  0
 12 13  2  0  0  0  0
 13 14  1  0  0  0  0
 14 15  1  0  0  0  0
 15 16  1  0  0  0  0
 14 17  2  0  0  0  0
  9 17  1  0  0  0  0
  7 18  2  0  0  0  0
 18 19  1  0  0  0  0
 19 20  2  0  0  0  0
  4 20  1  0  0  0  0
M  END
> <ID>
CPD_2120

$$$$
CPD_2125
  Mrv1822 09091914012D          

 23 24  0  0  0  0            999 V2000
   -1.4289   -0.0000    0.0000 C   0  0  0  0  0  0  0  0  0  0  0  0
   -0.7145   -0.4125    0.0000 C   0  0  0  0  0  0  0  0  0  0  0  0
    0.0000    0.0000    0.0000 O   0  0  0  0  0  0  0  0  0  0  0  0
   -0.7145   -1.2375    0.0000 C   0  0  0  0  0  0  0  0  0  0  0  0
   -1.4289   -1.6500    0.0000 C   0  0  0  0  0  0  0  0  0  0  0  0
   -2.1434   -1.2375    0.0000 N   0  0  0  0  0  0  0  0  0  0  0  0
   -2.8579   -1.6500    0.0000 C   0  0  0  0  0  0  0  0  0  0  0  0
   -2.8579   -2.4750    0.0000 C   0  0  0  0  0  0  0  0  0  0  0  0
   -2.1434   -2.8875    0.0000 F   0  0  0  0  0  0  0  0  0  0  0  0
   -3.5724   -2.8875    0.0000 C   0  0  0  0  0  0  0  0  0  0  0  0
   -4.2868   -2.4750    0.0000 C   0  0  0  0  0  0  0  0  0  0  0  0
   -5.0013   -2.8875    0.0000 Cl  0  0  0  0  0  0  0  0  0  0  0  0
   -4.2868   -1.6500    0.0000 C   0  0  0  0  0  0  0  0  0  0  0  0
   -5.0013   -1.2375    0.0000 N   0  0  0  0  0  0  0  0  0  0  0  0
   -3.5724   -1.2375    0.0000 C   0  0  0  0  0  0  0  0  0  0  0  0
   -1.4289   -2.4750    0.0000 C   0  0  0  0  0  0  0  0  0  0  0  0
   -0.7145   -2.8875    0.0000 C   0  0  0  0  0  0  0  0  0  0  0  0
    0.0000   -2.4750    0.0000 C   0  0  0  0  0  0  0  0  0  0  0  0
    0.0000   -1.6500    0.0000 C   0  0  0  0  0  0  0  0  0  0  0  0
   -0.7145   -3.7125    0.0000 C   0  0  0  0  0  0  0  0  0  0  0  0
   -0.7145   -4.5375    0.0000 F   0  0  0  0  0  0  0  0  0  0  0  0
   -1.5395   -3.7125    0.0000 F   0  0  0  0  0  0  0  0  0  0  0  0
    0.1105   -3.7125    0.0000 F   0  0  0  0  0  0  0  0  0  0  0  0
  1  2  1  0  0  0  0
  2  3  2  0  0  0  0
  2  4  1  0  0  0  0
  4  5  2  0  0  0  0
  5  6  1  0  0  0  0
  6  7  1  0  0  0  0
  7  8  2  0  0  0  0
  8  9  1  0  0  0  0
  8 10  1  0  0  0  0
 10 11  2  0  0  0  0
 11 12  1  0  0  0  0
 11 13  1  0  0  0  0
 13 14  1  0  0  0  0
 13 15  2  0  0  0  0
  7 15  1  0  0  0  0
  5 16  1  0  0  0  0
 16 17  2  0  0  0  0
 17 18  1  0  0  0  0
 18 19  2  0  0  0  0
  4 19  1  0  0  0  0
 17 20  1  0  0  0  0
 20 21  1  0  0  0  0
 20 22  1  0  0  0  0
 20 23  1  0  0  0  0
M  END
> <ID>
CPD_2125

$$$$
CPD_2130
  Mrv1822 09091914012D          

 28 30  0  0  0  0            999 V2000
   -1.4289   -3.3000    0.0000 N   0  0  0  0  0  0  0  0  0  0  0  0
   -1.4289   -4.1250    0.0000 C   0  0  0  0  0  0  0  0  0  0  0  0
   -0.7145   -4.5375    0.0000 C   0  0  0  0  0  0  0  0  0  0  0  0
   -0.7145   -5.3625    0.0000 C   0  0  0  0  0  0  0  0  0  0  0  0
    0.0000   -5.7750    0.0000 N   0  0  0  0  0  0  0  0  0  0  0  0
    0.0000   -6.6000    0.0000 C   0  0  0  0  0  0  0  0  0  0  0  0
    0.8250   -6.6000    0.0000 F   0  0  0  0  0  0  0  0  0  0  0  0
   -0.8250   -6.6000    0.0000 F   0  0  0  0  0  0  0  0  0  0  0  0
    0.0000   -7.4250    0.0000 C   0  0  0  0  0  0  0  0  0  0  0  0
    0.7145   -7.8375    0.0000 C   0  0  0  0  0  0  0  0  0  0  0  0
    0.7145   -8.6625    0.0000 C   0  0  0  0  0  0  0  0  0  0  0  0
    0.0000   -9.0750    0.0000 C   0  0  0  0  0  0  0  0  0  0  0  0
   -0.7145   -8.6625    0.0000 C   0  0  0  0  0  0  0  0  0  0  0  0
   -0.7145   -7.8375    0.0000 C   0  0  0  0  0  0  0  0  0  0  0  0
   -1.4289   -9.0750    0.0000 C   0  0  0  0  0  0  0  0  0  0  0  0
   -2.1434   -8.6625    0.0000 O   0  0  0  0  0  0  0  0  0  0  0  0
   -1.4289   -9.9000    0.0000 O   0  0  0  0  0  0  0  0  0  0  0  0
    1.4289   -9.0750    0.0000 C   0  0  0  0  0  0  0  0  0  0  0  0
    2.1434   -8.6625    0.0000 C   0  0  0  0  0  0  0  0  0  0  0  0
    2.8579   -9.0750    0.0000 C   0  0  0  0  0  0  0  0  0  0  0  0
    2.8579   -9.9000    0.0000 C   0  0  0  0  0  0  0  0  0  0  0  0
    2.1434  -10.3125    0.0000 C   0  0  0  0  0  0  0  0  0  0  0  0
    1.4289   -9.9000    0.0000 C   0  0  0  0  0  0  0  0  0  0  0  0
   -1.4289   -5.7750    0.0000 C   0  0  0  0  0  0  0  0  0  0  0  0
   -1.4289   -6.6000    0.0000 F   0  0  0  0  0  0  0  0  0  0  0  0
   -2.1434   -5.3625    0.0000 C   0  0  0  0  0  0  0  0  0  0  0  0
   -2.1434   -4.5375    0.0000 C   0  0  0  0  0  0  0  0  0  0  0  0
   -2.8579   -4.1250    0.0000 Cl  0  0  0  0  0  0  0  0  0  0  0  0
  1  2  1  0  0  0  0
  2  3  2  0  0  0  0
  3  4  1  0  0  0  0
  4  5  1  0  0  0  0
  5  6  1  0  0  0  0
  6  7  1  0  0  0  0
  6  8  1  0  0  0  0
  6  9  1  0  0  0  0
  9 10  2  0  0  0  0
 10 11  1  0  0  0  0
 11 12  2  0  0  0  0
 12 13  1  0  0  0  0
 13 14  2  0  0  0  0
  9 14  1  0  0  0  0
 13 15  1  0  0  0  0
 15 16  1  0  0  0  0
 15 17  2  0  0  0  0
 11 18  1  0  0  0  0
 18 19  2  0  0  0  0
 19 20  1  0  0  0  0
 20 21  2  0  0  0  0
 21 22  1  0  0  0  0
 22 23  2  0  0  0  0
 18 23  1  0  0  0  0
  4 24  2  0  0  0  0
 24 25  1  0  0  0  0
 24 26  1  0  0  0  0
 26 27  2  0  0  0  0
  2 27  1  0  0  0  0
 27 28  1  0  0  0  0
M  END
> <ID>
CPD_2130

$$$$
CPD_2135
  Mrv1822 09091914012D          

 20 22  0  0  0  0            999 V2000
    0.7145   -1.2375    0.0000 N   0  0  0  0  0  0  0  0  0  0  0  0
    0.7145   -0.4125    0.0000 C   0  0  0  0  0  0  0  0  0  0  0  0
    0.0000    0.0000    0.0000 C   0  0  0  0  0  0  0  0  0  0  0  0
   -0.7846   -0.2549    0.0000 N   0  0  0  0  0  0  0  0  0  0  0  0
   -1.2695    0.4125    0.0000 N   0  0  0  0  0  0  0  0  0  0  0  0
   -0.7846    1.0799    0.0000 C   0  0  0  0  0  0  0  0  0  0  0  0
    0.0000    0.8250    0.0000 C   0  0  0  0  0  0  0  0  0  0  0  0
    0.7145    1.2375    0.0000 C   0  0  0  0  0  0  0  0  0  0  0  0
    0.7145    2.0625    0.0000 N   0  0  0  0  0  0  0  0  0  0  0  0
    1.4289    2.4750    0.0000 C   0  0  0  0  0  0  0  0  0  0  0  0
    1.4289    3.3000    0.0000 C   0  0  0  0  0  0  0  0  0  0  0  0
    0.7145    3.7125    0.0000 F   0  0  0  0  0  0  0  0  0  0  0  0
    2.1434    3.7125    0.0000 C   0  0  0  0  0  0  0  0  0  0  0  0
    2.8579    3.3000    0.0000 C   0  0  0  0  0  0  0  0  0  0  0  0
    3.5724    3.7125    0.0000 Cl  0  0  0  0  0  0  0  0  0  0  0  0
    2.8579    2.4750    0.0000 C   0  0  0  0  0  0  0  0  0  0  0  0
    3.5724    2.0625    0.0000 N   0  0  0  0  0  0  0  0  0  0  0  0
    2.1434    2.0625    0.0000 C   0  0  0  0  0  0  0  0  0  0  0  0
    1.4289    0.8250    0.0000 C   0  0  0  0  0  0  0  0  0  0  0  0
    1.4289    0.0000    0.0000 C   0  0  0  0  0  0  0  0  0  0  0  0
  1  2  1  0  0  0  0
  2  3  2  0  0  0  0
  3  4  1  0  0  0  0
  4  5  1  0  0  0  0
  5  6  2  0  0  0  0
  6  7  1  0  0  0  0
  3  7  1  0  0  0  0
  7  8  2  0  0  0  0
  8  9  1  0  0  0  0
  9 10  1  0  0  0  0
 10 11  2  0  0  0  0
 11 12  1  0  0  0  0
 11 13  1  0  0  0  0
 13 14  2  0  0  0  0
 14 15  1  0  0  0  0
 14 16  1  0  0  0  0
 16 17  1  0  0  0  0
 16 18  2  0  0  0  0
 10 18  1  0  0  0  0
  8 19  1  0  0  0  0
 19 20  2  0  0  0  0
  2 20  1  0  0  0  0
M  END
> <ID>
CPD_2135

$$$$
CPD_2140
  Mrv1822 09091914012D          

 18 19  0  0  0  0            999 V2000
   -3.8683   -3.8834    0.0000 C   0  0  0  0  0  0  0  0  0  0  0  0
   -3.1538   -4.2959    0.0000 C   0  0  0  0  0  0  0  0  0  0  0  0
   -2.4394   -3.8834    0.0000 C   0  0  0  0  0  0  0  0  0  0  0  0
   -1.7249   -4.2959    0.0000 C   0  0  0  0  0  0  0  0  0  0  0  0
   -1.0104   -3.8834    0.0000 C   0  0  0  0  0  0  0  0  0  0  0  0
   -0.2959   -4.2959    0.0000 N   0  0  0  0  0  0  0  0  0  0  0  0
    0.5009   -4.0823    0.0000 C   0  0  0  0  0  0  0  0  0  0  0  0
    0.7145   -4.8792    0.0000 C   0  0  0  0  0  0  0  0  0  0  0  0
   -0.0824   -5.0928    0.0000 C   0  0  0  0  0  0  0  0  0  0  0  0
    1.4289   -5.2917    0.0000 O   0  0  0  0  0  0  0  0  0  0  0  0
    2.1434   -4.8792    0.0000 C   0  0  0  0  0  0  0  0  0  0  0  0
    2.1434   -4.0542    0.0000 C   0  0  0  0  0  0  0  0  0  0  0  0
    2.8579   -3.6417    0.0000 C   0  0  0  0  0  0  0  0  0  0  0  0
    2.8579   -2.8167    0.0000 F   0  0  0  0  0  0  0  0  0  0  0  0
    3.5724   -4.0542    0.0000 C   0  0  0  0  0  0  0  0  0  0  0  0
    4.2868   -3.6417    0.0000 F   0  0  0  0  0  0  0  0  0  0  0  0
    3.5724   -4.8792    0.0000 C   0  0  0  0  0  0  0  0  0  0  0  0
    2.8579   -5.2917    0.0000 C   0  0  0  0  0  0  0  0  0  0  0  0
  1  2  1  0  0  0  0
  2  3  1  0  0  0  0
  3  4  1  0  0  0  0
  4  5  1  0  0  0  0
  5  6  1  0  0  0  0
  6  7  1  0  0  0  0
  7  8  1  0  0  0  0
  8  9  1  0  0  0  0
  6  9  1  0  0  0  0
  8 10  1  0  0  0  0
 10 11  1  0  0  0  0
 11 12  2  0  0  0  0
 12 13  1  0  0  0  0
 13 14  1  0  0  0  0
 13 15  2  0  0  0  0
 15 16  1  0  0  0  0
 15 17  1  0  0  0  0
 17 18  2  0  0  0  0
 11 18  1  0  0  0  0
M  END
> <ID>
CPD_2140

$$$$
CPD_2145
  Mrv1822 09091914012D          

 25 27  0  0  0  0            999 V2000
    0.5052    1.9417    0.0000 F   0  0  0  0  0  0  0  0  0  0  0  0
    0.5052    1.1167    0.0000 C   0  0  0  0  0  0  0  0  0  0  0  0
    1.2197    0.7042    0.0000 C   0  0  0  0  0  0  0  0  0  0  0  0
    1.9341    1.1167    0.0000 F   0  0  0  0  0  0  0  0  0  0  0  0
    1.2197   -0.1208    0.0000 C   0  0  0  0  0  0  0  0  0  0  0  0
    1.9341   -0.5333    0.0000 C   0  0  0  0  0  0  0  0  0  0  0  0
    1.9341   -1.3583    0.0000 N   0  0  0  0  0  0  0  0  0  0  0  0
    2.5175   -1.9417    0.0000 C   0  0  0  0  0  0  0  0  0  0  0  0
    1.9341   -2.5250    0.0000 C   0  0  0  0  0  0  0  0  0  0  0  0
    1.3508   -1.9417    0.0000 C   0  0  0  0  0  0  0  0  0  0  0  0
    1.9341   -3.3500    0.0000 O   0  0  0  0  0  0  0  0  0  0  0  0
    1.2197   -3.7625    0.0000 C   0  0  0  0  0  0  0  0  0  0  0  0
    1.2197   -4.5875    0.0000 N   0  0  0  0  0  0  0  0  0  0  0  0
    0.5052   -5.0000    0.0000 C   0  0  0  0  0  0  0  0  0  0  0  0
   -0.2093   -4.5875    0.0000 C   0  0  0  0  0  0  0  0  0  0  0  0
   -0.2093   -3.7625    0.0000 C   0  0  0  0  0  0  0  0  0  0  0  0
    0.5052   -3.3500    0.0000 C   0  0  0  0  0  0  0  0  0  0  0  0
   -0.9237   -5.0000    0.0000 C   0  0  0  0  0  0  0  0  0  0  0  0
   -1.6382   -5.4125    0.0000 F   0  0  0  0  0  0  0  0  0  0  0  0
   -1.3362   -4.2856    0.0000 F   0  0  0  0  0  0  0  0  0  0  0  0
   -0.5112   -5.7145    0.0000 F   0  0  0  0  0  0  0  0  0  0  0  0
    0.5052   -0.5333    0.0000 C   0  0  0  0  0  0  0  0  0  0  0  0
    0.5052   -1.3583    0.0000 Cl  0  0  0  0  0  0  0  0  0  0  0  0
   -0.2093   -0.1208    0.0000 C   0  0  0  0  0  0  0  0  0  0  0  0
   -0.2093    0.7042    0.0000 C   0  0  0  0  0  0  0  0  0  0  0  0
  1  2  1  0  0  0  0
  2  3  2  0  0  0  0
  3  4  1  0  0  0  0
  3  5  1  0  0  0  0
  5  6  1  0  0  0  0
  6  7  1  0  0  0  0
  7  8  1  0  0  0  0
  8  9  1  0  0  0  0
  9 10  1  0  0  0  0
  7 10  1  0  0  0  0
  9 11  1  0  0  0  0
 11 12  1  0  0  0  0
 12 13  2  0  0  0  0
 13 14  1  0  0  0  0
 14 15  2  0  0  0  0
 15 16  1  0  0  0  0
 16 17  2  0  0  0  0
 12 17  1  0  0  0  0
 15 18  1  0  0  0  0
 18 19  1  0  0  0  0
 18 20  1  0  0  0  0
 18 21  1  0  0  0  0
  5 22  2  0  0  0  0
 22 23  1  0  0  0  0
 22 24  1  0  0  0  0
 24 25  2  0  0  0  0
  2 25  1  0  0  0  0
M  END
> <ID>
CPD_2145

$$$$
CPD_2150
  Mrv1822 09091914012D          

 20 21  0  0  0  0            999 V2000
    0.5052    1.1167    0.0000 N   0  0  0  0  0  0  0  0  0  0  0  0
    1.2197    0.7042    0.0000 C   0  0  0  0  0  0  0  0  0  0  0  0
    1.2197   -0.1208    0.0000 C   0  0  0  0  0  0  0  0  0  0  0  0
    0.5052   -0.5333    0.0000 O   0  0  0  0  0  0  0  0  0  0  0  0
    1.9341   -0.5333    0.0000 C   0  0  0  0  0  0  0  0  0  0  0  0
    1.9341   -1.3583    0.0000 N   0  0  0  0  0  0  0  0  0  0  0  0
    2.5175   -1.9417    0.0000 C   0  0  0  0  0  0  0  0  0  0  0  0
    1.9341   -2.5250    0.0000 C   0  0  0  0  0  0  0  0  0  0  0  0
    1.3508   -1.9417    0.0000 C   0  0  0  0  0  0  0  0  0  0  0  0
    1.9341   -3.3500    0.0000 O   0  0  0  0  0  0  0  0  0  0  0  0
    1.2197   -3.7625    0.0000 C   0  0  0  0  0  0  0  0  0  0  0  0
    1.2197   -4.5875    0.0000 N   0  0  0  0  0  0  0  0  0  0  0  0
    0.5052   -5.0000    0.0000 C   0  0  0  0  0  0  0  0  0  0  0  0
   -0.2093   -4.5875    0.0000 C   0  0  0  0  0  0  0  0  0  0  0  0
   -0.2093   -3.7625    0.0000 C   0  0  0  0  0  0  0  0  0  0  0  0
    0.5052   -3.3500    0.0000 C   0  0  0  0  0  0  0  0  0  0  0  0
   -0.9237   -5.0000    0.0000 C   0  0  0  0  0  0  0  0  0  0  0  0
   -1.6382   -5.4125    0.0000 F   0  0  0  0  0  0  0  0  0  0  0  0
   -1.3362   -4.2856    0.0000 F   0  0  0  0  0  0  0  0  0  0  0  0
   -0.5112   -5.7145    0.0000 F   0  0  0  0  0  0  0  0  0  0  0  0
  1  2  1  0  0  0  0
  2  3  1  0  0  0  0
  3  4  1  0  0  0  0
  3  5  1  0  0  0  0
  5  6  1  0  0  0  0
  6  7  1  0  0  0  0
  7  8  1  0  0  0  0
  8  9  1  0  0  0  0
  6  9  1  0  0  0  0
  8 10  1  0  0  0  0
 10 11  1  0  0  0  0
 11 12  2  0  0  0  0
 12 13  1  0  0  0  0
 13 14  2  0  0  0  0
 14 15  1  0  0  0  0
 15 16  2  0  0  0  0
 11 16  1  0  0  0  0
 14 17  1  0  0  0  0
 17 18  1  0  0  0  0
 17 19  1  0  0  0  0
 17 20  1  0  0  0  0
M  END
> <ID>
CPD_2150

$$$$
CPD_2155
  Mrv1822 09091914012D          

 24 27  0  0  1  0            999 V2000
   -1.1514    0.9271    0.0000 C   0  0  0  0  0  0  0  0  0  0  0  0
   -0.3444    0.7556    0.0000 C   0  0  0  0  0  0  0  0  0  0  0  0
    0.2076    1.3686    0.0000 O   0  0  0  0  0  0  0  0  0  0  0  0
    1.0146    1.1971    0.0000 C   0  0  0  0  0  0  0  0  0  0  0  0
    1.5666    1.8102    0.0000 O   0  0  0  0  0  0  0  0  0  0  0  0
    1.2695    0.4125    0.0000 C   0  0  2  0  0  0  0  0  0  0  0  0
    2.0542    0.1576    0.0000 C   0  0  1  0  0  0  0  0  0  0  0  0
    2.8388    0.4125    0.0000 C   0  0  0  0  0  0  0  0  0  0  0  0
    3.3237   -0.2549    0.0000 C   0  0  0  0  0  0  0  0  0  0  0  0
    2.8388   -0.9224    0.0000 C   0  0  0  0  0  0  0  0  0  0  0  0
    2.0542   -0.6674    0.0000 C   0  0  1  0  0  0  0  0  0  0  0  0
    1.2695   -0.9224    0.0000 C   0  0  0  0  0  0  0  0  0  0  0  0
    0.7846   -0.2549    0.0000 N   0  0  0  0  0  0  0  0  0  0  0  0
   -0.0404   -0.2549    0.0000 C   0  0  0  0  0  0  0  0  0  0  0  0
   -0.4529   -0.9694    0.0000 C   0  0  0  0  0  0  0  0  0  0  0  0
   -0.0404   -1.6839    0.0000 C   0  0  0  0  0  0  0  0  0  0  0  0
   -0.4529   -2.3984    0.0000 C   0  0  0  0  0  0  0  0  0  0  0  0
   -1.2779   -2.3984    0.0000 C   0  0  0  0  0  0  0  0  0  0  0  0
   -1.6904   -1.6839    0.0000 C   0  0  0  0  0  0  0  0  0  0  0  0
   -1.2779   -0.9694    0.0000 C   0  0  0  0  0  0  0  0  0  0  0  0
   -1.6904   -3.1128    0.0000 C   0  0  0  0  0  0  0  0  0  0  0  0
   -1.4769   -3.9097    0.0000 C   0  0  0  0  0  0  0  0  0  0  0  0
   -2.2737   -4.1232    0.0000 C   0  0  0  0  0  0  0  0  0  0  0  0
   -2.4873   -3.3263    0.0000 C   0  0  0  0  0  0  0  0  0  0  0  0
  1  2  1  0  0  0  0
  2  3  1  0  0  0  0
  3  4  1  0  0  0  0
  4  5  2  0  0  0  0
  6  4  1  6  0  0  0
  7  6  1  0  0  0  0
  7  8  1  1  0  0  0
  8  9  1  0  0  0  0
  9 10  1  0  0  0  0
 11 10  1  1  0  0  0
  7 11  1  0  0  0  0
 11 12  1  0  0  0  0
 12 13  1  0  0  0  0
  6 13  1  0  0  0  0
 13 14  1  0  0  0  0
 14 15  1  0  0  0  0
 15 16  2  0  0  0  0
 16 17  1  0  0  0  0
 17 18  2  0  0  0  0
 18 19  1  0  0  0  0
 19 20  2  0  0  0  0
 15 20  1  0  0  0  0
 18 21  1  0  0  0  0
 21 22  1  0  0  0  0
 22 23  1  0  0  0  0
 23 24  1  0  0  0  0
 21 24  1  0  0  0  0
M  END
> <ID>
CPD_2155

$$$$
CPD_2160
  Mrv1822 09091914012D          

 25 28  0  0  1  0            999 V2000
    1.8637    3.2079    0.0000 C   0  0  0  0  0  0  0  0  0  0  0  0
    1.3117    2.5948    0.0000 C   0  0  0  0  0  0  0  0  0  0  0  0
    1.5666    1.8102    0.0000 O   0  0  0  0  0  0  0  0  0  0  0  0
    1.0146    1.1971    0.0000 C   0  0  0  0  0  0  0  0  0  0  0  0
    0.2076    1.3686    0.0000 O   0  0  0  0  0  0  0  0  0  0  0  0
    1.2695    0.4125    0.0000 C   0  0  2  0  0  0  0  0  0  0  0  0
    2.0542    0.1576    0.0000 C   0  0  1  0  0  0  0  0  0  0  0  0
    2.8388    0.4125    0.0000 C   0  0  0  0  0  0  0  0  0  0  0  0
    3.3237   -0.2549    0.0000 C   0  0  0  0  0  0  0  0  0  0  0  0
    2.8388   -0.9224    0.0000 C   0  0  0  0  0  0  0  0  0  0  0  0
    2.0542   -0.6674    0.0000 C   0  0  1  0  0  0  0  0  0  0  0  0
    1.2695   -0.9224    0.0000 C   0  0  0  0  0  0  0  0  0  0  0  0
    0.7846   -0.2549    0.0000 N   0  0  0  0  0  0  0  0  0  0  0  0
   -0.0404   -0.2549    0.0000 C   0  0  0  0  0  0  0  0  0  0  0  0
   -0.4529   -0.9694    0.0000 C   0  0  0  0  0  0  0  0  0  0  0  0
   -0.1173   -1.7231    0.0000 C   0  0  0  0  0  0  0  0  0  0  0  0
   -0.7304   -2.2751    0.0000 N   0  0  0  0  0  0  0  0  0  0  0  0
   -1.4449   -1.8626    0.0000 C   0  0  0  0  0  0  0  0  0  0  0  0
   -1.2734   -1.0556    0.0000 S   0  0  0  0  0  0  0  0  0  0  0  0
   -2.1986   -2.1982    0.0000 C   0  0  0  0  0  0  0  0  0  0  0  0
   -2.2848   -3.0187    0.0000 C   0  0  0  0  0  0  0  0  0  0  0  0
   -3.0385   -3.3542    0.0000 C   0  0  0  0  0  0  0  0  0  0  0  0
   -3.7059   -2.8693    0.0000 C   0  0  0  0  0  0  0  0  0  0  0  0
   -3.6197   -2.0488    0.0000 C   0  0  0  0  0  0  0  0  0  0  0  0
   -2.8660   -1.7133    0.0000 C   0  0  0  0  0  0  0  0  0  0  0  0
  1  2  1  0  0  0  0
  2  3  1  0  0  0  0
  3  4  1  0  0  0  0
  4  5  2  0  0  0  0
  6  4  1  6  0  0  0
  7  6  1  0  0  0  0
  7  8  1  1  0  0  0
  8  9  1  0  0  0  0
  9 10  1  0  0  0  0
 11 10  1  1  0  0  0
  7 11  1  0  0  0  0
 11 12  1  0  0  0  0
 12 13  1  0  0  0  0
  6 13  1  0  0  0  0
 13 14  1  0  0  0  0
 14 15  1  0  0  0  0
 15 16  2  0  0  0  0
 16 17  1  0  0  0  0
 17 18  2  0  0  0  0
 18 19  1  0  0  0  0
 15 19  1  0  0  0  0
 18 20  1  0  0  0  0
 20 21  2  0  0  0  0
 21 22  1  0  0  0  0
 22 23  2  0  0  0  0
 23 24  1  0  0  0  0
 24 25  2  0  0  0  0
 20 25  1  0  0  0  0
M  END
> <ID>
CPD_2160

$$$$
CPD_2165
  Mrv1822 09091914012D          

 25 26  0  0  0  0            999 V2000
    0.0000   -2.4750    0.0000 C   0  0  0  0  0  0  0  0  0  0  0  0
    0.7145   -2.8875    0.0000 O   0  0  0  0  0  0  0  0  0  0  0  0
    1.4289   -2.4750    0.0000 C   0  0  0  0  0  0  0  0  0  0  0  0
    1.4289   -1.6500    0.0000 O   0  0  0  0  0  0  0  0  0  0  0  0
    2.1434   -2.8875    0.0000 C   0  0  0  0  0  0  0  0  0  0  0  0
    2.8579   -2.4750    0.0000 C   0  0  0  0  0  0  0  0  0  0  0  0
    2.8579   -1.6500    0.0000 O   0  0  0  0  0  0  0  0  0  0  0  0
    3.5724   -2.8875    0.0000 C   0  0  0  0  0  0  0  0  0  0  0  0
    4.2868   -2.4750    0.0000 C   0  0  0  0  0  0  0  0  0  0  0  0
    5.0013   -2.8875    0.0000 C   0  0  0  0  0  0  0  0  0  0  0  0
    5.0013   -3.7125    0.0000 C   0  0  0  0  0  0  0  0  0  0  0  0
    4.2868   -4.1250    0.0000 C   0  0  0  0  0  0  0  0  0  0  0  0
    3.5724   -3.7125    0.0000 C   0  0  0  0  0  0  0  0  0  0  0  0
    5.7158   -4.1250    0.0000 C   0  0  0  0  0  0  0  0  0  0  0  0
    5.3033   -4.8395    0.0000 F   0  0  0  0  0  0  0  0  0  0  0  0
    6.1283   -3.4105    0.0000 F   0  0  0  0  0  0  0  0  0  0  0  0
    6.4302   -4.5375    0.0000 N   0  0  0  0  0  0  0  0  0  0  0  0
    7.1447   -4.1250    0.0000 C   0  0  0  0  0  0  0  0  0  0  0  0
    7.3582   -3.3281    0.0000 C   0  0  0  0  0  0  0  0  0  0  0  0
    8.1551   -3.5416    0.0000 N   0  0  0  0  0  0  0  0  0  0  0  0
    7.9416   -4.3385    0.0000 C   0  0  0  0  0  0  0  0  0  0  0  0
    8.8696   -3.1291    0.0000 C   0  0  0  0  0  0  0  0  0  0  0  0
    9.5841   -2.7166    0.0000 C   0  0  0  0  0  0  0  0  0  0  0  0
    9.2821   -3.8436    0.0000 C   0  0  0  0  0  0  0  0  0  0  0  0
    8.4571   -2.4147    0.0000 C   0  0  0  0  0  0  0  0  0  0  0  0
  1  2  1  0  0  0  0
  2  3  1  0  0  0  0
  3  4  2  0  0  0  0
  3  5  1  0  0  0  0
  5  6  1  0  0  0  0
  6  7  2  0  0  0  0
  6  8  1  0  0  0  0
  8  9  2  0  0  0  0
  9 10  1  0  0  0  0
 10 11  2  0  0  0  0
 11 12  1  0  0  0  0
 12 13  2  0  0  0  0
  8 13  1  0  0  0  0
 11 14  1  0  0  0  0
 14 15  1  0  0  0  0
 14 16  1  0  0  0  0
 14 17  1  0  0  0  0
 17 18  1  0  0  0  0
 18 19  1  0  0  0  0
 19 20  1  0  0  0  0
 20 21  1  0  0  0  0
 18 21  1  0  0  0  0
 20 22  1  0  0  0  0
 22 23  1  0  0  0  0
 22 24  1  0  0  0  0
 22 25  1  0  0  0  0
M  END
> <ID>
CPD_2165

$$$$
CPD_2170
  Mrv1822 09091914012D          

 21 23  0  0  0  0            999 V2000
    4.7812    6.4022    0.0000 C   0  0  0  0  0  0  0  0  0  0  0  0
    4.7812    5.5772    0.0000 C   0  0  0  0  0  0  0  0  0  0  0  0
    3.9562    5.5772    0.0000 C   0  0  0  0  0  0  0  0  0  0  0  0
    5.6062    5.5772    0.0000 C   0  0  0  0  0  0  0  0  0  0  0  0
    4.7812    4.7522    0.0000 N   0  0  0  0  0  0  0  0  0  0  0  0
    5.3646    4.1688    0.0000 C   0  0  0  0  0  0  0  0  0  0  0  0
    4.7812    3.5854    0.0000 C   0  0  0  0  0  0  0  0  0  0  0  0
    4.1979    4.1688    0.0000 C   0  0  0  0  0  0  0  0  0  0  0  0
    4.7812    2.7604    0.0000 N   0  0  0  0  0  0  0  0  0  0  0  0
    4.0668    2.3479    0.0000 C   0  0  0  0  0  0  0  0  0  0  0  0
    3.6543    3.0624    0.0000 F   0  0  0  0  0  0  0  0  0  0  0  0
    4.4793    1.6335    0.0000 F   0  0  0  0  0  0  0  0  0  0  0  0
    3.3523    1.9354    0.0000 C   0  0  0  0  0  0  0  0  0  0  0  0
    3.3523    1.1104    0.0000 C   0  0  0  0  0  0  0  0  0  0  0  0
    2.6378    0.6979    0.0000 C   0  0  0  0  0  0  0  0  0  0  0  0
    1.9233    1.1104    0.0000 C   0  0  0  0  0  0  0  0  0  0  0  0
    1.1387    0.8555    0.0000 N   0  0  0  0  0  0  0  0  0  0  0  0
    0.6538    1.5229    0.0000 N   0  0  0  0  0  0  0  0  0  0  0  0
    1.1387    2.1904    0.0000 C   0  0  0  0  0  0  0  0  0  0  0  0
    1.9233    1.9354    0.0000 C   0  0  0  0  0  0  0  0  0  0  0  0
    2.6378    2.3479    0.0000 C   0  0  0  0  0  0  0  0  0  0  0  0
  1  2  1  0  0  0  0
  2  3  1  0  0  0  0
  2  4  1  0  0  0  0
  2  5  1  0  0  0  0
  5  6  1  0  0  0  0
  6  7  1  0  0  0  0
  7  8  1  0  0  0  0
  5  8  1  0  0  0  0
  7  9  1  0  0  0  0
  9 10  1  0  0  0  0
 10 11  1  0  0  0  0
 10 12  1  0  0  0  0
 10 13  1  0  0  0  0
 13 14  2  0  0  0  0
 14 15  1  0  0  0  0
 15 16  2  0  0  0  0
 16 17  1  0  0  0  0
 17 18  1  0  0  0  0
 18 19  2  0  0  0  0
 19 20  1  0  0  0  0
 16 20  1  0  0  0  0
 20 21  2  0  0  0  0
 13 21  1  0  0  0  0
M  END
> <ID>
CPD_2170

$$$$
CPD_2175
  Mrv1822 09091914012D          

 24 25  0  0  0  0            999 V2000
    0.6725   -1.9957    0.0000 C   0  0  0  0  0  0  0  0  0  0  0  0
    1.3870   -2.4082    0.0000 C   0  0  0  0  0  0  0  0  0  0  0  0
    2.1015   -1.9957    0.0000 O   0  0  0  0  0  0  0  0  0  0  0  0
    2.8159   -2.4082    0.0000 C   0  0  0  0  0  0  0  0  0  0  0  0
    2.8159   -3.2332    0.0000 O   0  0  0  0  0  0  0  0  0  0  0  0
    3.5304   -1.9957    0.0000 C   0  0  0  0  0  0  0  0  0  0  0  0
    4.2449   -2.4082    0.0000 N   0  0  0  0  0  0  0  0  0  0  0  0
    4.9986   -2.0727    0.0000 N   0  0  0  0  0  0  0  0  0  0  0  0
    5.5506   -2.6857    0.0000 C   0  0  0  0  0  0  0  0  0  0  0  0
    5.1381   -3.4002    0.0000 C   0  0  0  0  0  0  0  0  0  0  0  0
    4.3311   -3.2287    0.0000 C   0  0  0  0  0  0  0  0  0  0  0  0
    3.7180   -3.7807    0.0000 C   0  0  0  0  0  0  0  0  0  0  0  0
    6.3711   -2.5995    0.0000 C   0  0  0  0  0  0  0  0  0  0  0  0
    6.4573   -3.4200    0.0000 F   0  0  0  0  0  0  0  0  0  0  0  0
    6.2848   -1.7790    0.0000 F   0  0  0  0  0  0  0  0  0  0  0  0
    7.1916   -2.5133    0.0000 N   0  0  0  0  0  0  0  0  0  0  0  0
    7.6765   -3.1807    0.0000 C   0  0  0  0  0  0  0  0  0  0  0  0
    8.4913   -3.3098    0.0000 C   0  0  0  0  0  0  0  0  0  0  0  0
    8.3623   -4.1246    0.0000 N   0  0  0  0  0  0  0  0  0  0  0  0
    7.5474   -3.9956    0.0000 C   0  0  0  0  0  0  0  0  0  0  0  0
    8.8472   -4.7921    0.0000 C   0  0  0  0  0  0  0  0  0  0  0  0
    9.3321   -5.4595    0.0000 C   0  0  0  0  0  0  0  0  0  0  0  0
    8.1797   -5.2770    0.0000 C   0  0  0  0  0  0  0  0  0  0  0  0
    9.5146   -4.3071    0.0000 C   0  0  0  0  0  0  0  0  0  0  0  0
  1  2  1  0  0  0  0
  2  3  1  0  0  0  0
  3  4  1  0  0  0  0
  4  5  2  0  0  0  0
  4  6  1  0  0  0  0
  6  7  1  0  0  0  0
  7  8  1  0  0  0  0
  8  9  2  0  0  0  0
  9 10  1  0  0  0  0
 10 11  2  0  0  0  0
  7 11  1  0  0  0  0
 11 12  1  0  0  0  0
  9 13  1  0  0  0  0
 13 14  1  0  0  0  0
 13 15  1  0  0  0  0
 13 16  1  0  0  0  0
 16 17  1  0  0  0  0
 17 18  1  0  0  0  0
 18 19  1  0  0  0  0
 19 20  1  0  0  0  0
 17 20  1  0  0  0  0
 19 21  1  0  0  0  0
 21 22  1  0  0  0  0
 21 23  1  0  0  0  0
 21 24  1  0  0  0  0
M  END
> <ID>
CPD_2175

$$$$
CPD_2180
  Mrv1822 09091914012D          

 18 19  0  0  1  0            999 V2000
    2.9403    0.6852    0.0000 C   0  0  0  0  0  0  0  0  0  0  0  0
    2.2258    0.2727    0.0000 O   0  0  0  0  0  0  0  0  0  0  0  0
    2.2258   -0.5523    0.0000 C   0  0  0  0  0  0  0  0  0  0  0  0
    2.9403   -0.9648    0.0000 O   0  0  0  0  0  0  0  0  0  0  0  0
    1.5114   -0.9648    0.0000 C   0  0  0  0  0  0  0  0  0  0  0  0
    1.5114   -1.7898    0.0000 C   0  0  2  0  0  0  0  0  0  0  0  0
    2.1788   -2.2748    0.0000 C   0  0  0  0  0  0  0  0  0  0  0  0
    1.9239   -3.0594    0.0000 C   0  0  0  0  0  0  0  0  0  0  0  0
    1.0989   -3.0594    0.0000 C   0  0  0  0  0  0  0  0  0  0  0  0
    0.8439   -2.2748    0.0000 N   0  0  0  0  0  0  0  0  0  0  0  0
    0.0593   -2.0198    0.0000 S   0  0  0  0  0  0  0  0  0  0  0  0
    0.3142   -1.2352    0.0000 O   0  0  0  0  0  0  0  0  0  0  0  0
   -0.1956   -2.8044    0.0000 O   0  0  0  0  0  0  0  0  0  0  0  0
   -0.7253   -1.7649    0.0000 C   0  0  0  0  0  0  0  0  0  0  0  0
   -1.3928   -2.2498    0.0000 C   0  0  0  0  0  0  0  0  0  0  0  0
   -2.0602   -1.7649    0.0000 O   0  0  0  0  0  0  0  0  0  0  0  0
   -1.8053   -0.9803    0.0000 C   0  0  0  0  0  0  0  0  0  0  0  0
   -0.9803   -0.9803    0.0000 C   0  0  0  0  0  0  0  0  0  0  0  0
  1  2  1  0  0  0  0
  2  3  1  0  0  0  0
  3  4  2  0  0  0  0
  3  5  1  0  0  0  0
  6  5  1  6  0  0  0
  6  7  1  0  0  0  0
  7  8  1  0  0  0  0
  8  9  1  0  0  0  0
  9 10  1  0  0  0  0
  6 10  1  0  0  0  0
 10 11  1  0  0  0  0
 11 12  2  0  0  0  0
 11 13  2  0  0  0  0
 11 14  1  0  0  0  0
 14 15  2  0  0  0  0
 15 16  1  0  0  0  0
 16 17  1  0  0  0  0
 17 18  2  0  0  0  0
 14 18  1  0  0  0  0
M  END
> <ID>
CPD_2180

$$$$
CPD_2185
  Mrv1822 09091914012D          

 30 32  0  0  0  0            999 V2000
   -4.2868   -1.6500    0.0000 C   0  0  0  0  0  0  0  0  0  0  0  0
   -3.5724   -1.2375    0.0000 C   0  0  0  0  0  0  0  0  0  0  0  0
   -2.8579   -1.6500    0.0000 C   0  0  0  0  0  0  0  0  0  0  0  0
   -2.1434   -1.2375    0.0000 C   0  0  0  0  0  0  0  0  0  0  0  0
   -1.4289   -1.6500    0.0000 C   0  0  0  0  0  0  0  0  0  0  0  0
   -0.7145   -1.2375    0.0000 C   0  0  0  0  0  0  0  0  0  0  0  0
    0.0000   -1.6500    0.0000 C   0  0  0  0  0  0  0  0  0  0  0  0
    0.0000   -2.4750    0.0000 C   0  0  0  0  0  0  0  0  0  0  0  0
    0.7145   -2.8875    0.0000 N   0  0  0  0  0  0  0  0  0  0  0  0
    1.4289   -2.4750    0.0000 C   0  0  0  0  0  0  0  0  0  0  0  0
    1.4289   -1.6500    0.0000 O   0  0  0  0  0  0  0  0  0  0  0  0
    2.1434   -2.8875    0.0000 C   0  0  0  0  0  0  0  0  0  0  0  0
    2.8579   -2.4750    0.0000 S   0  0  0  0  0  0  0  0  0  0  0  0
    3.5724   -2.8875    0.0000 C   0  0  0  0  0  0  0  0  0  0  0  0
    4.2868   -2.4750    0.0000 C   0  0  0  0  0  0  0  0  0  0  0  0
    5.0013   -2.8875    0.0000 C   0  0  0  0  0  0  0  0  0  0  0  0
    5.0013   -3.7125    0.0000 C   0  0  0  0  0  0  0  0  0  0  0  0
    5.7158   -4.1250    0.0000 N   0  0  0  0  0  0  0  0  0  0  0  0
    5.7158   -4.9500    0.0000 S   0  0  0  0  0  0  0  0  0  0  0  0
    4.8908   -4.9500    0.0000 O   0  0  0  0  0  0  0  0  0  0  0  0
    6.5408   -4.9500    0.0000 O   0  0  0  0  0  0  0  0  0  0  0  0
    5.7158   -5.7750    0.0000 C   0  0  0  0  0  0  0  0  0  0  0  0
    6.3832   -6.2599    0.0000 C   0  0  0  0  0  0  0  0  0  0  0  0
    6.1283   -7.0445    0.0000 O   0  0  0  0  0  0  0  0  0  0  0  0
    5.3033   -7.0445    0.0000 C   0  0  0  0  0  0  0  0  0  0  0  0
    5.0483   -6.2599    0.0000 C   0  0  0  0  0  0  0  0  0  0  0  0
    4.2868   -4.1250    0.0000 C   0  0  0  0  0  0  0  0  0  0  0  0
    3.5724   -3.7125    0.0000 C   0  0  0  0  0  0  0  0  0  0  0  0
   -0.7145   -2.8875    0.0000 C   0  0  0  0  0  0  0  0  0  0  0  0
   -1.4289   -2.4750    0.0000 C   0  0  0  0  0  0  0  0  0  0  0  0
  1  2  1  0  0  0  0
  2  3  1  0  0  0  0
  3  4  1  0  0  0  0
  4  5  1  0  0  0  0
  5  6  2  0  0  0  0
  6  7  1  0  0  0  0
  7  8  2  0  0  0  0
  8  9  1  0  0  0  0
  9 10  1  0  0  0  0
 10 11  2  0  0  0  0
 10 12  1  0  0  0  0
 12 13  1  0  0  0  0
 13 14  1  0  0  0  0
 14 15  2  0  0  0  0
 15 16  1  0  0  0  0
 16 17  2  0  0  0  0
 17 18  1  0  0  0  0
 18 19  1  0  0  0  0
 19 20  2  0  0  0  0
 19 21  2  0  0  0  0
 19 22  1  0  0  0  0
 22 23  2  0  0  0  0
 23 24  1  0  0  0  0
 24 25  1  0  0  0  0
 25 26  2  0  0  0  0
 22 26  1  0  0  0  0
 17 27  1  0  0  0  0
 27 28  2  0  0  0  0
 14 28  1  0  0  0  0
  8 29  1  0  0  0  0
 29 30  2  0  0  0  0
  5 30  1  0  0  0  0
M  END
> <ID>
CPD_2185

$$$$
CPD_2190
  Mrv1822 09091914012D          

 18 19  0  0  1  0            999 V2000
    2.0634   -1.1767    0.0000 C   0  0  0  0  0  0  0  0  0  0  0  0
    1.5114   -1.7898    0.0000 C   0  0  0  0  0  0  0  0  0  0  0  0
    0.9593   -1.1767    0.0000 C   0  0  0  0  0  0  0  0  0  0  0  0
    2.1788   -2.2748    0.0000 S   0  0  0  0  0  0  0  0  0  0  0  0
    1.9239   -3.0594    0.0000 C   0  0  0  0  0  0  0  0  0  0  0  0
    1.0989   -3.0594    0.0000 N   0  0  0  0  0  0  0  0  0  0  0  0
    0.8439   -2.2748    0.0000 C   0  0  1  0  0  0  0  0  0  0  0  0
    0.0593   -2.0198    0.0000 C   0  0  0  0  0  0  0  0  0  0  0  0
   -0.1122   -1.2128    0.0000 O   0  0  0  0  0  0  0  0  0  0  0  0
   -0.5538   -2.5719    0.0000 O   0  0  0  0  0  0  0  0  0  0  0  0
    0.6139   -3.7268    0.0000 S   0  0  0  0  0  0  0  0  0  0  0  0
   -0.0535   -3.2419    0.0000 O   0  0  0  0  0  0  0  0  0  0  0  0
    1.2814   -4.2117    0.0000 O   0  0  0  0  0  0  0  0  0  0  0  0
    0.1290   -4.3943    0.0000 C   0  0  0  0  0  0  0  0  0  0  0  0
    0.3840   -5.1789    0.0000 C   0  0  0  0  0  0  0  0  0  0  0  0
   -0.2835   -5.6638    0.0000 O   0  0  0  0  0  0  0  0  0  0  0  0
   -0.9509   -5.1789    0.0000 C   0  0  0  0  0  0  0  0  0  0  0  0
   -0.6960   -4.3943    0.0000 C   0  0  0  0  0  0  0  0  0  0  0  0
  1  2  1  0  0  0  0
  2  3  1  0  0  0  0
  2  4  1  0  0  0  0
  4  5  1  0  0  0  0
  5  6  1  0  0  0  0
  7  6  1  0  0  0  0
  7  2  1  0  0  0  0
  7  8  1  1  0  0  0
  8  9  1  0  0  0  0
  8 10  2  0  0  0  0
  6 11  1  0  0  0  0
 11 12  2  0  0  0  0
 11 13  2  0  0  0  0
 11 14  1  0  0  0  0
 14 15  2  0  0  0  0
 15 16  1  0  0  0  0
 16 17  1  0  0  0  0
 17 18  2  0  0  0  0
 14 18  1  0  0  0  0
M  END
> <ID>
CPD_2190

$$$$
CPD_2195
  Mrv1822 09091914012D          

 28 31  0  0  0  0            999 V2000
   -2.8884    7.0533    0.0000 O   0  0  0  0  0  0  0  0  0  0  0  0
   -2.0915    7.2669    0.0000 C   0  0  0  0  0  0  0  0  0  0  0  0
   -1.8780    8.0638    0.0000 O   0  0  0  0  0  0  0  0  0  0  0  0
   -1.5082    6.6835    0.0000 C   0  0  0  0  0  0  0  0  0  0  0  0
   -0.7113    6.8970    0.0000 C   0  0  0  0  0  0  0  0  0  0  0  0
   -0.1279    6.3137    0.0000 C   0  0  0  0  0  0  0  0  0  0  0  0
   -0.3414    5.5168    0.0000 N   0  0  0  0  0  0  0  0  0  0  0  0
   -1.1383    5.3032    0.0000 C   0  0  0  0  0  0  0  0  0  0  0  0
   -1.7217    5.8866    0.0000 C   0  0  0  0  0  0  0  0  0  0  0  0
    0.2419    4.9334    0.0000 S   0  0  0  0  0  0  0  0  0  0  0  0
   -0.3414    4.3500    0.0000 O   0  0  0  0  0  0  0  0  0  0  0  0
    0.8253    5.5168    0.0000 O   0  0  0  0  0  0  0  0  0  0  0  0
    0.8253    4.3500    0.0000 C   0  0  0  0  0  0  0  0  0  0  0  0
    1.6222    4.5636    0.0000 C   0  0  0  0  0  0  0  0  0  0  0  0
    1.8357    5.3605    0.0000 C   0  0  0  0  0  0  0  0  0  0  0  0
    2.6326    5.5740    0.0000 C   0  0  0  0  0  0  0  0  0  0  0  0
    3.2160    4.9906    0.0000 C   0  0  0  0  0  0  0  0  0  0  0  0
    4.0129    5.2041    0.0000 Cl  0  0  0  0  0  0  0  0  0  0  0  0
    3.0024    4.1937    0.0000 C   0  0  0  0  0  0  0  0  0  0  0  0
    2.2055    3.9802    0.0000 C   0  0  0  0  0  0  0  0  0  0  0  0
    3.5858    3.6104    0.0000 N   0  0  0  0  0  0  0  0  0  0  0  0
    4.4108    3.6104    0.0000 C   0  0  0  0  0  0  0  0  0  0  0  0
    4.4108    2.7854    0.0000 C   0  0  0  0  0  0  0  0  0  0  0  0
    5.2358    2.7854    0.0000 O   0  0  0  0  0  0  0  0  0  0  0  0
    3.5858    2.7854    0.0000 C   0  0  0  0  0  0  0  0  0  0  0  0
    4.4108    1.9604    0.0000 C   0  0  0  0  0  0  0  0  0  0  0  0
    4.8233    1.2459    0.0000 C   0  0  0  0  0  0  0  0  0  0  0  0
    3.9983    1.2459    0.0000 C   0  0  0  0  0  0  0  0  0  0  0  0
  1  2  1  0  0  0  0
  2  3  2  0  0  0  0
  2  4  1  0  0  0  0
  4  5  1  0  0  0  0
  5  6  1  0  0  0  0
  6  7  1  0  0  0  0
  7  8  1  0  0  0  0
  8  9  1  0  0  0  0
  4  9  1  0  0  0  0
  7 10  1  0  0  0  0
 10 11  2  0  0  0  0
 10 12  2  0  0  0  0
 10 13  1  0  0  0  0
 13 14  1  0  0  0  0
 14 15  2  0  0  0  0
 15 16  1  0  0  0  0
 16 17  2  0  0  0  0
 17 18  1  0  0  0  0
 17 19  1  0  0  0  0
 19 20  2  0  0  0  0
 14 20  1  0  0  0  0
 19 21  1  0  0  0  0
 21 22  1  0  0  0  0
 22 23  1  0  0  0  0
 23 24  1  0  0  0  0
 23 25  1  0  0  0  0
 21 25  1  0  0  0  0
 23 26  1  0  0  0  0
 26 27  1  0  0  0  0
 27 28  1  0  0  0  0
 26 28  1  0  0  0  0
M  END
> <ID>
CPD_2195

$$$$
CPD_2200
  Mrv1822 09091914012D          

 23 26  0  0  0  0            999 V2000
    0.0000    0.0000    0.0000 C   0  0  0  0  0  0  0  0  0  0  0  0
    0.7145   -0.4125    0.0000 C   0  0  0  0  0  0  0  0  0  0  0  0
    1.4289    0.0000    0.0000 N   0  0  0  0  0  0  0  0  0  0  0  0
    2.1434   -0.4125    0.0000 C   0  0  0  0  0  0  0  0  0  0  0  0
    2.8579    0.0000    0.0000 C   0  0  0  0  0  0  0  0  0  0  0  0
    3.5724   -0.4125    0.0000 C   0  0  0  0  0  0  0  0  0  0  0  0
    4.2868   -0.0000    0.0000 Cl  0  0  0  0  0  0  0  0  0  0  0  0
    3.5724   -1.2375    0.0000 C   0  0  0  0  0  0  0  0  0  0  0  0
    2.8579   -1.6500    0.0000 C   0  0  0  0  0  0  0  0  0  0  0  0
    2.1434   -1.2375    0.0000 C   0  0  0  0  0  0  0  0  0  0  0  0
    1.4289   -1.6500    0.0000 C   0  0  0  0  0  0  0  0  0  0  0  0
    0.7145   -1.2375    0.0000 C   0  0  0  0  0  0  0  0  0  0  0  0
    1.4289   -2.4750    0.0000 C   0  0  0  0  0  0  0  0  0  0  0  0
    0.7145   -2.8875    0.0000 O   0  0  0  0  0  0  0  0  0  0  0  0
    2.1434   -2.8875    0.0000 O   0  0  0  0  0  0  0  0  0  0  0  0
    4.2868   -1.6500    0.0000 N   0  0  0  0  0  0  0  0  0  0  0  0
    5.0837   -1.4365    0.0000 C   0  0  0  0  0  0  0  0  0  0  0  0
    5.2972   -2.2334    0.0000 C   0  0  0  0  0  0  0  0  0  0  0  0
    6.0941   -2.0198    0.0000 O   0  0  0  0  0  0  0  0  0  0  0  0
    4.5004   -2.4469    0.0000 C   0  0  0  0  0  0  0  0  0  0  0  0
    5.5108   -3.0303    0.0000 C   0  0  0  0  0  0  0  0  0  0  0  0
    6.0941   -3.6136    0.0000 C   0  0  0  0  0  0  0  0  0  0  0  0
    5.2972   -3.8271    0.0000 C   0  0  0  0  0  0  0  0  0  0  0  0
  1  2  1  0  0  0  0
  2  3  2  0  0  0  0
  3  4  1  0  0  0  0
  4  5  2  0  0  0  0
  5  6  1  0  0  0  0
  6  7  1  0  0  0  0
  6  8  2  0  0  0  0
  8  9  1  0  0  0  0
  9 10  2  0  0  0  0
  4 10  1  0  0  0  0
 10 11  1  0  0  0  0
 11 12  2  0  0  0  0
  2 12  1  0  0  0  0
 11 13  1  0  0  0  0
 13 14  1  0  0  0  0
 13 15  2  0  0  0  0
  8 16  1  0  0  0  0
 16 17  1  0  0  0  0
 17 18  1  0  0  0  0
 18 19  1  0  0  0  0
 18 20  1  0  0  0  0
 16 20  1  0  0  0  0
 18 21  1  0  0  0  0
 21 22  1  0  0  0  0
 22 23  1  0  0  0  0
 21 23  1  0  0  0  0
M  END
> <ID>
CPD_2200

$$$$
CPD_2205
  Mrv1822 09091914012D          

 20 22  0  0  0  0            999 V2000
   -4.2097    8.5480    0.0000 C   0  0  0  0  0  0  0  0  0  0  0  0
   -3.6264    7.9647    0.0000 O   0  0  0  0  0  0  0  0  0  0  0  0
   -3.8399    7.1678    0.0000 C   0  0  0  0  0  0  0  0  0  0  0  0
   -3.2565    6.5844    0.0000 C   0  0  0  0  0  0  0  0  0  0  0  0
   -3.4701    5.7875    0.0000 C   0  0  0  0  0  0  0  0  0  0  0  0
   -2.8867    5.2041    0.0000 N   0  0  0  0  0  0  0  0  0  0  0  0
   -2.0617    5.2041    0.0000 C   0  0  0  0  0  0  0  0  0  0  0  0
   -2.0617    4.3791    0.0000 C   0  0  0  0  0  0  0  0  0  0  0  0
   -1.2367    4.3791    0.0000 O   0  0  0  0  0  0  0  0  0  0  0  0
   -2.8867    4.3791    0.0000 C   0  0  0  0  0  0  0  0  0  0  0  0
   -2.0617    3.5541    0.0000 C   0  0  0  0  0  0  0  0  0  0  0  0
   -1.6492    2.8397    0.0000 C   0  0  0  0  0  0  0  0  0  0  0  0
   -2.4742    2.8397    0.0000 C   0  0  0  0  0  0  0  0  0  0  0  0
   -4.2669    5.5740    0.0000 C   0  0  0  0  0  0  0  0  0  0  0  0
   -4.4805    4.7771    0.0000 O   0  0  0  0  0  0  0  0  0  0  0  0
   -5.2774    4.5636    0.0000 C   0  0  0  0  0  0  0  0  0  0  0  0
   -4.8503    6.1574    0.0000 C   0  0  0  0  0  0  0  0  0  0  0  0
   -5.6472    5.9438    0.0000 O   0  0  0  0  0  0  0  0  0  0  0  0
   -6.2306    6.5272    0.0000 C   0  0  0  0  0  0  0  0  0  0  0  0
   -4.6368    6.9542    0.0000 N   0  0  0  0  0  0  0  0  0  0  0  0
  1  2  1  0  0  0  0
  2  3  1  0  0  0  0
  3  4  2  0  0  0  0
  4  5  1  0  0  0  0
  5  6  1  0  0  0  0
  6  7  1  0  0  0  0
  7  8  1  0  0  0  0
  8  9  1  0  0  0  0
  8 10  1  0  0  0  0
  6 10  1  0  0  0  0
  8 11  1  0  0  0  0
 11 12  1  0  0  0  0
 12 13  1  0  0  0  0
 11 13  1  0  0  0  0
  5 14  2  0  0  0  0
 14 15  1  0  0  0  0
 15 16  1  0  0  0  0
 14 17  1  0  0  0  0
 17 18  1  0  0  0  0
 18 19  1  0  0  0  0
 17 20  2  0  0  0  0
  3 20  1  0  0  0  0
M  END
> <ID>
CPD_2205

$$$$
CPD_2210
  Mrv1822 09091914012D          

 30 33  0  0  0  0            999 V2000
   -1.8414   -1.7605    0.0000 C   0  0  0  0  0  0  0  0  0  0  0  0
   -1.4289   -2.4750    0.0000 O   0  0  0  0  0  0  0  0  0  0  0  0
   -0.6039   -2.4750    0.0000 C   0  0  0  0  0  0  0  0  0  0  0  0
   -0.1914   -1.7605    0.0000 O   0  0  0  0  0  0  0  0  0  0  0  0
   -0.1914   -3.1895    0.0000 C   0  0  0  0  0  0  0  0  0  0  0  0
    0.6336   -3.1895    0.0000 N   0  0  0  0  0  0  0  0  0  0  0  0
    1.0461   -3.9039    0.0000 C   0  0  0  0  0  0  0  0  0  0  0  0
    0.6336   -4.6184    0.0000 C   0  0  0  0  0  0  0  0  0  0  0  0
   -0.1914   -4.6184    0.0000 N   0  0  0  0  0  0  0  0  0  0  0  0
   -0.7748   -5.2018    0.0000 C   0  0  0  0  0  0  0  0  0  0  0  0
   -1.3582   -4.6184    0.0000 C   0  0  0  0  0  0  0  0  0  0  0  0
   -1.9415   -5.2018    0.0000 O   0  0  0  0  0  0  0  0  0  0  0  0
   -0.7748   -4.0350    0.0000 C   0  0  0  0  0  0  0  0  0  0  0  0
   -1.9415   -4.0350    0.0000 C   0  0  0  0  0  0  0  0  0  0  0  0
   -2.7384   -3.8215    0.0000 C   0  0  0  0  0  0  0  0  0  0  0  0
   -2.1551   -3.2382    0.0000 C   0  0  0  0  0  0  0  0  0  0  0  0
    1.0461   -5.3329    0.0000 C   0  0  0  0  0  0  0  0  0  0  0  0
    0.6336   -6.0474    0.0000 Cl  0  0  0  0  0  0  0  0  0  0  0  0
    1.8711   -5.3329    0.0000 C   0  0  0  0  0  0  0  0  0  0  0  0
    2.2836   -4.6184    0.0000 C   0  0  0  0  0  0  0  0  0  0  0  0
    1.8711   -3.9039    0.0000 C   0  0  0  0  0  0  0  0  0  0  0  0
    1.0461   -2.4750    0.0000 S   0  0  0  0  0  0  0  0  0  0  0  0
    1.7605   -2.8875    0.0000 O   0  0  0  0  0  0  0  0  0  0  0  0
    0.3316   -2.0625    0.0000 O   0  0  0  0  0  0  0  0  0  0  0  0
    1.4586   -1.7605    0.0000 C   0  0  0  0  0  0  0  0  0  0  0  0
    1.0461   -1.0461    0.0000 C   0  0  0  0  0  0  0  0  0  0  0  0
    1.4586   -0.3316    0.0000 C   0  0  0  0  0  0  0  0  0  0  0  0
    2.2836   -0.3316    0.0000 C   0  0  0  0  0  0  0  0  0  0  0  0
    2.6961   -1.0461    0.0000 C   0  0  0  0  0  0  0  0  0  0  0  0
    2.2836   -1.7605    0.0000 C   0  0  0  0  0  0  0  0  0  0  0  0
  1  2  1  0  0  0  0
  2  3  1  0  0  0  0
  3  4  2  0  0  0  0
  3  5  1  0  0  0  0
  5  6  1  0  0  0  0
  6  7  1  0  0  0  0
  7  8  2  0  0  0  0
  8  9  1  0  0  0  0
  9 10  1  0  0  0  0
 10 11  1  0  0  0  0
 11 12  1  0  0  0  0
 11 13  1  0  0  0  0
  9 13  1  0  0  0  0
 11 14  1  0  0  0  0
 14 15  1  0  0  0  0
 15 16  1  0  0  0  0
 14 16  1  0  0  0  0
  8 17  1  0  0  0  0
 17 18  1  0  0  0  0
 17 19  2  0  0  0  0
 19 20  1  0  0  0  0
 20 21  2  0  0  0  0
  7 21  1  0  0  0  0
  6 22  1  0  0  0  0
 22 23  2  0  0  0  0
 22 24  2  0  0  0  0
 22 25  1  0  0  0  0
 25 26  2  0  0  0  0
 26 27  1  0  0  0  0
 27 28  2  0  0  0  0
 28 29  1  0  0  0  0
 29 30  2  0  0  0  0
 25 30  1  0  0  0  0
M  END
> <ID>
CPD_2210

$$$$
CPD_2215
  Mrv1822 09091914012D          

 20 22  0  0  0  0            999 V2000
    2.4734   -0.8815    0.0000 C   0  0  0  0  0  0  0  0  0  0  0  0
    1.8414   -1.4118    0.0000 C   0  0  0  0  0  0  0  0  0  0  0  0
    1.2095   -0.8815    0.0000 C   0  0  0  0  0  0  0  0  0  0  0  0
    2.2539   -2.1263    0.0000 C   0  0  0  0  0  0  0  0  0  0  0  0
    1.4289   -2.1263    0.0000 C   0  0  0  0  0  0  0  0  0  0  0  0
    0.7145   -2.5388    0.0000 N   0  0  0  0  0  0  0  0  0  0  0  0
    0.0000   -2.1263    0.0000 C   0  0  0  0  0  0  0  0  0  0  0  0
   -0.7145   -2.5388    0.0000 C   0  0  0  0  0  0  0  0  0  0  0  0
   -1.4289   -2.1263    0.0000 C   0  0  0  0  0  0  0  0  0  0  0  0
   -1.4289   -1.3013    0.0000 C   0  0  0  0  0  0  0  0  0  0  0  0
   -2.1434   -0.8888    0.0000 O   0  0  0  0  0  0  0  0  0  0  0  0
   -2.1434   -0.0638    0.0000 C   0  0  0  0  0  0  0  0  0  0  0  0
   -2.8579    0.3487    0.0000 C   0  0  0  0  0  0  0  0  0  0  0  0
   -2.8579    1.1737    0.0000 N   0  0  0  0  0  0  0  0  0  0  0  0
   -3.5253    1.6586    0.0000 C   0  0  0  0  0  0  0  0  0  0  0  0
   -3.2704    2.4432    0.0000 C   0  0  0  0  0  0  0  0  0  0  0  0
   -2.4454    2.4432    0.0000 C   0  0  0  0  0  0  0  0  0  0  0  0
   -2.1904    1.6586    0.0000 C   0  0  0  0  0  0  0  0  0  0  0  0
   -0.7145   -0.8888    0.0000 C   0  0  0  0  0  0  0  0  0  0  0  0
    0.0000   -1.3013    0.0000 C   0  0  0  0  0  0  0  0  0  0  0  0
  1  2  1  0  0  0  0
  2  3  1  0  0  0  0
  2  4  1  0  0  0  0
  4  5  1  0  0  0  0
  2  5  1  0  0  0  0
  5  6  1  0  0  0  0
  6  7  1  0  0  0  0
  7  8  2  0  0  0  0
  8  9  1  0  0  0  0
  9 10  2  0  0  0  0
 10 11  1  0  0  0  0
 11 12  1  0  0  0  0
 12 13  1  0  0  0  0
 13 14  1  0  0  0  0
 14 15  1  0  0  0  0
 15 16  1  0  0  0  0
 16 17  1  0  0  0  0
 17 18  1  0  0  0  0
 14 18  1  0  0  0  0
 10 19  1  0  0  0  0
 19 20  2  0  0  0  0
  7 20  1  0  0  0  0
M  END
> <ID>
CPD_2215

$$$$
CPD_2220
  Mrv1822 09091914012D          

 29 32  0  0  0  0            999 V2000
    3.7500    2.3672    0.0000 C   0  0  0  0  0  0  0  0  0  0  0  0
    3.1369    2.9192    0.0000 S   0  0  0  0  0  0  0  0  0  0  0  0
    2.5238    3.4713    0.0000 O   0  0  0  0  0  0  0  0  0  0  0  0
    3.6889    3.5323    0.0000 O   0  0  0  0  0  0  0  0  0  0  0  0
    2.5849    2.3061    0.0000 N   0  0  0  0  0  0  0  0  0  0  0  0
    2.8398    1.5215    0.0000 C   0  0  0  0  0  0  0  0  0  0  0  0
    3.6468    1.3500    0.0000 C   0  0  0  0  0  0  0  0  0  0  0  0
    4.1988    1.9631    0.0000 C   0  0  0  0  0  0  0  0  0  0  0  0
    5.0058    1.7915    0.0000 C   0  0  0  0  0  0  0  0  0  0  0  0
    5.2607    1.0069    0.0000 C   0  0  0  0  0  0  0  0  0  0  0  0
    4.7087    0.3938    0.0000 C   0  0  0  0  0  0  0  0  0  0  0  0
    3.9017    0.5654    0.0000 C   0  0  0  0  0  0  0  0  0  0  0  0
    6.0677    0.8354    0.0000 C   0  0  0  0  0  0  0  0  0  0  0  0
    6.3226    0.0508    0.0000 O   0  0  0  0  0  0  0  0  0  0  0  0
    6.6197    1.4485    0.0000 O   0  0  0  0  0  0  0  0  0  0  0  0
    1.7779    2.4777    0.0000 C   0  0  0  0  0  0  0  0  0  0  0  0
    1.2258    1.8646    0.0000 C   0  0  0  0  0  0  0  0  0  0  0  0
    0.4189    2.0361    0.0000 C   0  0  0  0  0  0  0  0  0  0  0  0
    0.1639    2.8207    0.0000 C   0  0  0  0  0  0  0  0  0  0  0  0
    0.7160    3.4338    0.0000 C   0  0  0  0  0  0  0  0  0  0  0  0
    1.5229    3.2623    0.0000 C   0  0  0  0  0  0  0  0  0  0  0  0
    1.4808    1.0799    0.0000 N   0  0  0  0  0  0  0  0  0  0  0  0
    2.2654    0.8250    0.0000 C   0  0  0  0  0  0  0  0  0  0  0  0
    2.2654   -0.0000    0.0000 C   0  0  0  0  0  0  0  0  0  0  0  0
    1.4808   -0.2549    0.0000 C   0  0  0  0  0  0  0  0  0  0  0  0
    0.9959    0.4125    0.0000 C   0  0  0  0  0  0  0  0  0  0  0  0
    0.4125   -0.1709    0.0000 C   0  0  0  0  0  0  0  0  0  0  0  0
   -0.1709    0.4125    0.0000 C   0  0  0  0  0  0  0  0  0  0  0  0
    0.4125    0.9959    0.0000 C   0  0  0  0  0  0  0  0  0  0  0  0
  1  2  1  0  0  0  0
  2  3  2  0  0  0  0
  2  4  2  0  0  0  0
  2  5  1  0  0  0  0
  5  6  1  0  0  0  0
  6  7  1  0  0  0  0
  7  8  2  0  0  0  0
  8  9  1  0  0  0  0
  9 10  2  0  0  0  0
 10 11  1  0  0  0  0
 11 12  2  0  0  0  0
  7 12  1  0  0  0  0
 10 13  1  0  0  0  0
 13 14  1  0  0  0  0
 13 15  2  0  0  0  0
  5 16  1  0  0  0  0
 16 17  2  0  0  0  0
 17 18  1  0  0  0  0
 18 19  2  0  0  0  0
 19 20  1  0  0  0  0
 20 21  2  0  0  0  0
 16 21  1  0  0  0  0
 17 22  1  0  0  0  0
 22 23  1  0  0  0  0
 23 24  1  0  0  0  0
 24 25  1  0  0  0  0
 25 26  1  0  0  0  0
 22 26  1  0  0  0  0
 26 27  1  0  0  0  0
 27 28  1  0  0  0  0
 28 29  1  0  0  0  0
 26 29  1  0  0  0  0
M  END
> <ID>
CPD_2220

$$$$
CPD_2225
  Mrv1822 09091914012D          

 29 33  0  0  0  0            999 V2000
    2.0246    8.2432    0.0000 C   0  0  0  0  0  0  0  0  0  0  0  0
    2.2795    7.4586    0.0000 O   0  0  0  0  0  0  0  0  0  0  0  0
    3.0865    7.2871    0.0000 C   0  0  0  0  0  0  0  0  0  0  0  0
    3.3414    6.5024    0.0000 C   0  0  0  0  0  0  0  0  0  0  0  0
    2.7894    5.8893    0.0000 O   0  0  0  0  0  0  0  0  0  0  0  0
    3.0443    5.1047    0.0000 C   0  0  0  0  0  0  0  0  0  0  0  0
    4.1484    6.3309    0.0000 C   0  0  0  0  0  0  0  0  0  0  0  0
    4.7004    6.9440    0.0000 C   0  0  0  0  0  0  0  0  0  0  0  0
    4.4455    7.7286    0.0000 C   0  0  0  0  0  0  0  0  0  0  0  0
    3.6385    7.9001    0.0000 C   0  0  0  0  0  0  0  0  0  0  0  0
    5.5074    6.7725    0.0000 C   0  0  0  0  0  0  0  0  0  0  0  0
    6.0594    7.3856    0.0000 O   0  0  0  0  0  0  0  0  0  0  0  0
    5.7624    5.9878    0.0000 C   0  0  0  0  0  0  0  0  0  0  0  0
    5.2103    5.3748    0.0000 C   0  0  0  0  0  0  0  0  0  0  0  0
    4.4033    5.5463    0.0000 N   0  0  0  0  0  0  0  0  0  0  0  0
    5.4653    4.5901    0.0000 C   0  0  0  0  0  0  0  0  0  0  0  0
    6.2722    4.4186    0.0000 C   0  0  0  0  0  0  0  0  0  0  0  0
    6.5272    3.6340    0.0000 C   0  0  0  0  0  0  0  0  0  0  0  0
    5.9751    3.0209    0.0000 C   0  0  0  0  0  0  0  0  0  0  0  0
    5.1682    3.1924    0.0000 C   0  0  0  0  0  0  0  0  0  0  0  0
    4.9132    3.9770    0.0000 C   0  0  0  0  0  0  0  0  0  0  0  0
    6.2301    2.2363    0.0000 N   0  0  0  0  0  0  0  0  0  0  0  0
    7.0147    1.9813    0.0000 C   0  0  0  0  0  0  0  0  0  0  0  0
    7.0147    1.1563    0.0000 C   0  0  0  0  0  0  0  0  0  0  0  0
    6.2301    0.9014    0.0000 C   0  0  0  0  0  0  0  0  0  0  0  0
    5.7452    1.5688    0.0000 C   0  0  0  0  0  0  0  0  0  0  0  0
    5.1618    0.9855    0.0000 C   0  0  0  0  0  0  0  0  0  0  0  0
    4.5784    1.5688    0.0000 C   0  0  0  0  0  0  0  0  0  0  0  0
    5.1618    2.1522    0.0000 C   0  0  0  0  0  0  0  0  0  0  0  0
  1  2  1  0  0  0  0
  2  3  1  0  0  0  0
  3  4  2  0  0  0  0
  4  5  1  0  0  0  0
  5  6  1  0  0  0  0
  4  7  1  0  0  0  0
  7  8  2  0  0  0  0
  8  9  1  0  0  0  0
  9 10  2  0  0  0  0
  3 10  1  0  0  0  0
  8 11  1  0  0  0  0
 11 12  2  0  0  0  0
 11 13  1  0  0  0  0
 13 14  2  0  0  0  0
 14 15  1  0  0  0  0
  7 15  1  0  0  0  0
 14 16  1  0  0  0  0
 16 17  2  0  0  0  0
 17 18  1  0  0  0  0
 18 19  2  0  0  0  0
 19 20  1  0  0  0  0
 20 21  2  0  0  0  0
 16 21  1  0  0  0  0
 19 22  1  0  0  0  0
 22 23  1  0  0  0  0
 23 24  1  0  0  0  0
 24 25  1  0  0  0  0
 25 26  1  0  0  0  0
 22 26  1  0  0  0  0
 26 27  1  0  0  0  0
 27 28  1  0  0  0  0
 28 29  1  0  0  0  0
 26 29  1  0  0  0  0
M  END
> <ID>
CPD_2225

$$$$
CPD_2230
  Mrv1822 09091914012D          

 25 26  0  0  0  0            999 V2000
   -1.4289   -0.0000    0.0000 C   0  0  0  0  0  0  0  0  0  0  0  0
   -2.1434   -0.4125    0.0000 N   0  0  0  0  0  0  0  0  0  0  0  0
   -2.1434   -1.2375    0.0000 C   0  0  0  0  0  0  0  0  0  0  0  0
   -1.4289   -1.6500    0.0000 C   0  0  0  0  0  0  0  0  0  0  0  0
   -1.4289   -2.4750    0.0000 C   0  0  0  0  0  0  0  0  0  0  0  0
   -0.7145   -2.8875    0.0000 C   0  0  0  0  0  0  0  0  0  0  0  0
   -0.7145   -3.7125    0.0000 C   0  0  0  0  0  0  0  0  0  0  0  0
   -1.4289   -4.1250    0.0000 C   0  0  0  0  0  0  0  0  0  0  0  0
   -2.1434   -3.7125    0.0000 C   0  0  0  0  0  0  0  0  0  0  0  0
   -2.1434   -2.8875    0.0000 C   0  0  0  0  0  0  0  0  0  0  0  0
   -2.8579   -4.1250    0.0000 C   0  0  0  0  0  0  0  0  0  0  0  0
   -2.8579   -4.9500    0.0000 O   0  0  0  0  0  0  0  0  0  0  0  0
   -3.5724   -3.7125    0.0000 O   0  0  0  0  0  0  0  0  0  0  0  0
   -2.8579    0.0000    0.0000 C   0  0  0  0  0  0  0  0  0  0  0  0
   -3.5724   -0.4125    0.0000 C   0  0  0  0  0  0  0  0  0  0  0  0
   -4.2868    0.0000    0.0000 C   0  0  0  0  0  0  0  0  0  0  0  0
   -5.0013   -0.4125    0.0000 O   0  0  0  0  0  0  0  0  0  0  0  0
   -4.2868    0.8250    0.0000 C   0  0  0  0  0  0  0  0  0  0  0  0
   -3.5724    1.2375    0.0000 C   0  0  0  0  0  0  0  0  0  0  0  0
   -2.8579    0.8250    0.0000 C   0  0  0  0  0  0  0  0  0  0  0  0
   -2.1434    1.2375    0.0000 O   0  0  0  0  0  0  0  0  0  0  0  0
   -2.1434    2.0625    0.0000 C   0  0  0  0  0  0  0  0  0  0  0  0
   -2.1434    2.8875    0.0000 F   0  0  0  0  0  0  0  0  0  0  0  0
   -1.3184    2.0625    0.0000 F   0  0  0  0  0  0  0  0  0  0  0  0
   -2.9684    2.0625    0.0000 F   0  0  0  0  0  0  0  0  0  0  0  0
  1  2  1  0  0  0  0
  2  3  1  0  0  0  0
  3  4  1  0  0  0  0
  4  5  1  0  0  0  0
  5  6  2  0  0  0  0
  6  7  1  0  0  0  0
  7  8  2  0  0  0  0
  8  9  1  0  0  0  0
  9 10  2  0  0  0  0
  5 10  1  0  0  0  0
  9 11  1  0  0  0  0
 11 12  1  0  0  0  0
 11 13  2  0  0  0  0
  2 14  1  0  0  0  0
 14 15  2  0  0  0  0
 15 16  1  0  0  0  0
 16 17  1  0  0  0  0
 16 18  2  0  0  0  0
 18 19  1  0  0  0  0
 19 20  2  0  0  0  0
 14 20  1  0  0  0  0
 20 21  1  0  0  0  0
 21 22  1  0  0  0  0
 22 23  1  0  0  0  0
 22 24  1  0  0  0  0
 22 25  1  0  0  0  0
M  END
> <ID>
CPD_2230

$$$$
CPD_2235
  Mrv1822 09091914012D          

 22 23  0  0  0  0            999 V2000
    2.8579    0.0000    0.0000 C   0  0  0  0  0  0  0  0  0  0  0  0
    3.5724   -0.4125    0.0000 N   0  0  0  0  0  0  0  0  0  0  0  0
    3.5724   -1.2375    0.0000 C   0  0  0  0  0  0  0  0  0  0  0  0
    2.8579   -1.6500    0.0000 C   0  0  0  0  0  0  0  0  0  0  0  0
    2.8579   -2.4750    0.0000 C   0  0  0  0  0  0  0  0  0  0  0  0
    3.5724   -2.8875    0.0000 C   0  0  0  0  0  0  0  0  0  0  0  0
    3.5724   -3.7125    0.0000 C   0  0  0  0  0  0  0  0  0  0  0  0
    2.8579   -4.1250    0.0000 C   0  0  0  0  0  0  0  0  0  0  0  0
    2.1434   -3.7125    0.0000 C   0  0  0  0  0  0  0  0  0  0  0  0
    2.1434   -2.8875    0.0000 C   0  0  0  0  0  0  0  0  0  0  0  0
    1.4289   -4.1250    0.0000 C   0  0  0  0  0  0  0  0  0  0  0  0
    1.4289   -4.9500    0.0000 O   0  0  0  0  0  0  0  0  0  0  0  0
    0.7145   -3.7125    0.0000 O   0  0  0  0  0  0  0  0  0  0  0  0
    4.2868   -0.0000    0.0000 C   0  0  0  0  0  0  0  0  0  0  0  0
    4.2868    0.8250    0.0000 C   0  0  0  0  0  0  0  0  0  0  0  0
    5.0013    1.2375    0.0000 C   0  0  0  0  0  0  0  0  0  0  0  0
    5.0013    2.0625    0.0000 C   0  0  0  0  0  0  0  0  0  0  0  0
    4.2868    2.4750    0.0000 O   0  0  0  0  0  0  0  0  0  0  0  0
    5.7158    0.8250    0.0000 C   0  0  0  0  0  0  0  0  0  0  0  0
    6.4302    1.2375    0.0000 O   0  0  0  0  0  0  0  0  0  0  0  0
    5.7158   -0.0000    0.0000 C   0  0  0  0  0  0  0  0  0  0  0  0
    5.0013   -0.4125    0.0000 C   0  0  0  0  0  0  0  0  0  0  0  0
  1  2  1  0  0  0  0
  2  3  1  0  0  0  0
  3  4  1  0  0  0  0
  4  5  1  0  0  0  0
  5  6  2  0  0  0  0
  6  7  1  0  0  0  0
  7  8  2  0  0  0  0
  8  9  1  0  0  0  0
  9 10  2  0  0  0  0
  5 10  1  0  0  0  0
  9 11  1  0  0  0  0
 11 12  1  0  0  0  0
 11 13  2  0  0  0  0
  2 14  1  0  0  0  0
 14 15  2  0  0  0  0
 15 16  1  0  0  0  0
 16 17  1  0  0  0  0
 17 18  1  0  0  0  0
 16 19  2  0  0  0  0
 19 20  1  0  0  0  0
 19 21  1  0  0  0  0
 21 22  2  0  0  0  0
 14 22  1  0  0  0  0
M  END
> <ID>
CPD_2235

$$$$
CPD_2240
  Mrv1822 09091914012D          

 34 38  0  0  0  0            999 V2000
   -3.9566    4.5272    0.0000 Cl  0  0  0  0  0  0  0  0  0  0  0  0
   -3.8703    3.7067    0.0000 C   0  0  0  0  0  0  0  0  0  0  0  0
   -3.1166    3.3712    0.0000 C   0  0  0  0  0  0  0  0  0  0  0  0
   -3.0304    2.5507    0.0000 N   0  0  0  0  0  0  0  0  0  0  0  0
   -3.6978    2.0658    0.0000 C   0  0  0  0  0  0  0  0  0  0  0  0
   -3.6116    1.2453    0.0000 N   0  0  0  0  0  0  0  0  0  0  0  0
   -2.8579    0.9097    0.0000 C   0  0  0  0  0  0  0  0  0  0  0  0
   -2.1435    1.3222    0.0000 N   0  0  0  0  0  0  0  0  0  0  0  0
   -1.5304    0.7702    0.0000 C   0  0  0  0  0  0  0  0  0  0  0  0
   -1.8659    0.0165    0.0000 C   0  0  0  0  0  0  0  0  0  0  0  0
   -1.4534   -0.6979    0.0000 C   0  0  0  0  0  0  0  0  0  0  0  0
   -0.6284   -0.6979    0.0000 N   0  0  0  0  0  0  0  0  0  0  0  0
   -0.1435   -1.3654    0.0000 C   0  0  0  0  0  0  0  0  0  0  0  0
   -0.3984   -2.1500    0.0000 O   0  0  0  0  0  0  0  0  0  0  0  0
    0.6411   -1.1104    0.0000 C   0  0  0  0  0  0  0  0  0  0  0  0
    0.6411   -0.2854    0.0000 C   0  0  0  0  0  0  0  0  0  0  0  0
    1.3556    0.1271    0.0000 C   0  0  0  0  0  0  0  0  0  0  0  0
    2.0701   -0.2854    0.0000 C   0  0  0  0  0  0  0  0  0  0  0  0
    2.0701   -1.1104    0.0000 C   0  0  0  0  0  0  0  0  0  0  0  0
    1.3556   -1.5229    0.0000 C   0  0  0  0  0  0  0  0  0  0  0  0
   -0.1435   -0.0305    0.0000 C   0  0  0  0  0  0  0  0  0  0  0  0
   -0.3984    0.7541    0.0000 O   0  0  0  0  0  0  0  0  0  0  0  0
   -2.6864    0.1028    0.0000 S   0  0  0  0  0  0  0  0  0  0  0  0
   -4.4515    2.4013    0.0000 C   0  0  0  0  0  0  0  0  0  0  0  0
   -4.5378    3.2218    0.0000 C   0  0  0  0  0  0  0  0  0  0  0  0
   -5.1190    1.9164    0.0000 S   0  0  0  0  0  0  0  0  0  0  0  0
   -5.6039    2.5838    0.0000 O   0  0  0  0  0  0  0  0  0  0  0  0
   -4.6340    1.2490    0.0000 O   0  0  0  0  0  0  0  0  0  0  0  0
   -5.7864    1.4315    0.0000 N   0  0  0  0  0  0  0  0  0  0  0  0
   -5.7002    0.6110    0.0000 C   0  0  0  0  0  0  0  0  0  0  0  0
   -6.3676    0.1261    0.0000 C   0  0  0  0  0  0  0  0  0  0  0  0
   -7.1213    0.4616    0.0000 C   0  0  0  0  0  0  0  0  0  0  0  0
   -7.2075    1.2821    0.0000 C   0  0  0  0  0  0  0  0  0  0  0  0
   -6.5401    1.7670    0.0000 C   0  0  0  0  0  0  0  0  0  0  0  0
  1  2  1  0  0  0  0
  2  3  2  0  0  0  0
  3  4  1  0  0  0  0
  4  5  2  0  0  0  0
  5  6  1  0  0  0  0
  6  7  1  0  0  0  0
  7  8  2  0  0  0  0
  8  9  1  0  0  0  0
  9 10  2  0  0  0  0
 10 11  1  0  0  0  0
 11 12  1  0  0  0  0
 12 13  1  0  0  0  0
 13 14  2  0  0  0  0
 13 15  1  0  0  0  0
 15 16  2  0  0  0  0
 16 17  1  0  0  0  0
 17 18  2  0  0  0  0
 18 19  1  0  0  0  0
 19 20  2  0  0  0  0
 15 20  1  0  0  0  0
 16 21  1  0  0  0  0
 12 21  1  0  0  0  0
 21 22  2  0  0  0  0
 10 23  1  0  0  0  0
  7 23  1  0  0  0  0
  5 24  1  0  0  0  0
 24 25  2  0  0  0  0
  2 25  1  0  0  0  0
 24 26  1  0  0  0  0
 26 27  2  0  0  0  0
 26 28  2  0  0  0  0
 26 29  1  0  0  0  0
 29 30  1  0  0  0  0
 30 31  1  0  0  0  0
 31 32  1  0  0  0  0
 32 33  1  0  0  0  0
 33 34  1  0  0  0  0
 29 34  1  0  0  0  0
M  END
> <ID>
CPD_2240

$$$$
CPD_2245
  Mrv1822 09091914012D          

 28 31  0  0  0  0            999 V2000
   -2.3441   -2.8361    0.0000 Cl  0  0  0  0  0  0  0  0  0  0  0  0
   -1.5371   -2.6646    0.0000 C   0  0  0  0  0  0  0  0  0  0  0  0
   -1.2822   -1.8800    0.0000 C   0  0  0  0  0  0  0  0  0  0  0  0
   -0.4752   -1.7084    0.0000 N   0  0  0  0  0  0  0  0  0  0  0  0
    0.0768   -2.3215    0.0000 C   0  0  0  0  0  0  0  0  0  0  0  0
    0.8838   -2.1500    0.0000 N   0  0  0  0  0  0  0  0  0  0  0  0
    1.1387   -1.3654    0.0000 C   0  0  0  0  0  0  0  0  0  0  0  0
    0.6538   -0.6979    0.0000 N   0  0  0  0  0  0  0  0  0  0  0  0
    1.1387   -0.0305    0.0000 N   0  0  0  0  0  0  0  0  0  0  0  0
    1.9233   -0.2854    0.0000 C   0  0  0  0  0  0  0  0  0  0  0  0
    2.6378    0.1271    0.0000 C   0  0  0  0  0  0  0  0  0  0  0  0
    3.3523   -0.2854    0.0000 C   0  0  0  0  0  0  0  0  0  0  0  0
    3.3523   -1.1104    0.0000 C   0  0  0  0  0  0  0  0  0  0  0  0
    2.6378   -1.5229    0.0000 C   0  0  0  0  0  0  0  0  0  0  0  0
    1.9233   -1.1104    0.0000 C   0  0  0  0  0  0  0  0  0  0  0  0
    2.6378    0.9521    0.0000 C   0  0  0  0  0  0  0  0  0  0  0  0
    2.6378    1.7771    0.0000 N   0  0  0  0  0  0  0  0  0  0  0  0
   -0.1781   -3.1062    0.0000 C   0  0  0  0  0  0  0  0  0  0  0  0
   -0.9851   -3.2777    0.0000 C   0  0  0  0  0  0  0  0  0  0  0  0
    0.3739   -3.7192    0.0000 S   0  0  0  0  0  0  0  0  0  0  0  0
   -0.2392   -4.2713    0.0000 O   0  0  0  0  0  0  0  0  0  0  0  0
    0.9870   -3.1672    0.0000 O   0  0  0  0  0  0  0  0  0  0  0  0
    0.9259   -4.3323    0.0000 N   0  0  0  0  0  0  0  0  0  0  0  0
    1.7329   -4.1608    0.0000 C   0  0  0  0  0  0  0  0  0  0  0  0
    2.2849   -4.7739    0.0000 C   0  0  0  0  0  0  0  0  0  0  0  0
    2.0300   -5.5585    0.0000 C   0  0  0  0  0  0  0  0  0  0  0  0
    1.2230   -5.7301    0.0000 C   0  0  0  0  0  0  0  0  0  0  0  0
    0.6710   -5.1170    0.0000 C   0  0  0  0  0  0  0  0  0  0  0  0
  1  2  1  0  0  0  0
  2  3  2  0  0  0  0
  3  4  1  0  0  0  0
  4  5  2  0  0  0  0
  5  6  1  0  0  0  0
  6  7  1  0  0  0  0
  7  8  2  0  0  0  0
  8  9  1  0  0  0  0
  9 10  1  0  0  0  0
 10 11  2  0  0  0  0
 11 12  1  0  0  0  0
 12 13  2  0  0  0  0
 13 14  1  0  0  0  0
 14 15  2  0  0  0  0
  7 15  1  0  0  0  0
 10 15  1  0  0  0  0
 11 16  1  0  0  0  0
 16 17  3  0  0  0  0
  5 18  1  0  0  0  0
 18 19  2  0  0  0  0
  2 19  1  0  0  0  0
 18 20  1  0  0  0  0
 20 21  2  0  0  0  0
 20 22  2  0  0  0  0
 20 23  1  0  0  0  0
 23 24  1  0  0  0  0
 24 25  1  0  0  0  0
 25 26  1  0  0  0  0
 26 27  1  0  0  0  0
 27 28  1  0  0  0  0
 23 28  1  0  0  0  0
M  END
> <ID>
CPD_2245

$$$$
CPD_2250
  Mrv1822 09091914012D          

 27 29  0  0  0  0            999 V2000
    3.5724   -1.2375    0.0000 N   0  0  0  0  0  0  0  0  0  0  0  0
    3.5724   -2.0625    0.0000 C   0  0  0  0  0  0  0  0  0  0  0  0
    4.2868   -2.4750    0.0000 C   0  0  0  0  0  0  0  0  0  0  0  0
    5.0013   -2.0625    0.0000 Br  0  0  0  0  0  0  0  0  0  0  0  0
    4.2868   -3.3000    0.0000 C   0  0  0  0  0  0  0  0  0  0  0  0
    3.5724   -3.7125    0.0000 C   0  0  0  0  0  0  0  0  0  0  0  0
    3.5724   -4.5375    0.0000 N   0  0  0  0  0  0  0  0  0  0  0  0
    4.2868   -4.9500    0.0000 C   0  0  0  0  0  0  0  0  0  0  0  0
    5.0013   -4.5375    0.0000 N   0  0  0  0  0  0  0  0  0  0  0  0
    5.7158   -4.9500    0.0000 C   0  0  0  0  0  0  0  0  0  0  0  0
    5.7158   -5.7750    0.0000 C   0  0  0  0  0  0  0  0  0  0  0  0
    6.4302   -6.1875    0.0000 Cl  0  0  0  0  0  0  0  0  0  0  0  0
    5.0013   -6.1875    0.0000 C   0  0  0  0  0  0  0  0  0  0  0  0
    4.2868   -5.7750    0.0000 C   0  0  0  0  0  0  0  0  0  0  0  0
    3.5724   -6.1875    0.0000 S   0  0  0  0  0  0  0  0  0  0  0  0
    3.1599   -5.4730    0.0000 O   0  0  0  0  0  0  0  0  0  0  0  0
    3.9849   -6.9020    0.0000 O   0  0  0  0  0  0  0  0  0  0  0  0
    2.8579   -6.6000    0.0000 N   0  0  0  0  0  0  0  0  0  0  0  0
    2.8579   -7.4250    0.0000 C   0  0  0  0  0  0  0  0  0  0  0  0
    2.1434   -7.8375    0.0000 C   0  0  0  0  0  0  0  0  0  0  0  0
    1.4289   -7.4250    0.0000 C   0  0  0  0  0  0  0  0  0  0  0  0
    1.4289   -6.6000    0.0000 C   0  0  0  0  0  0  0  0  0  0  0  0
    2.1434   -6.1875    0.0000 C   0  0  0  0  0  0  0  0  0  0  0  0
    2.8579   -3.3000    0.0000 C   0  0  0  0  0  0  0  0  0  0  0  0
    2.8579   -2.4750    0.0000 C   0  0  0  0  0  0  0  0  0  0  0  0
    2.1434   -2.0625    0.0000 C   0  0  0  0  0  0  0  0  0  0  0  0
    1.4289   -1.6500    0.0000 N   0  0  0  0  0  0  0  0  0  0  0  0
  1  2  1  0  0  0  0
  2  3  2  0  0  0  0
  3  4  1  0  0  0  0
  3  5  1  0  0  0  0
  5  6  2  0  0  0  0
  6  7  1  0  0  0  0
  7  8  1  0  0  0  0
  8  9  2  0  0  0  0
  9 10  1  0  0  0  0
 10 11  2  0  0  0  0
 11 12  1  0  0  0  0
 11 13  1  0  0  0  0
 13 14  2  0  0  0  0
  8 14  1  0  0  0  0
 14 15  1  0  0  0  0
 15 16  2  0  0  0  0
 15 17  2  0  0  0  0
 15 18  1  0  0  0  0
 18 19  1  0  0  0  0
 19 20  1  0  0  0  0
 20 21  1  0  0  0  0
 21 22  1  0  0  0  0
 22 23  1  0  0  0  0
 18 23  1  0  0  0  0
  6 24  1  0  0  0  0
 24 25  2  0  0  0  0
  2 25  1  0  0  0  0
 25 26  1  0  0  0  0
 26 27  3  0  0  0  0
M  END
> <ID>
CPD_2250

$$$$
CPD_2255
  Mrv1822 09091914012D          

 27 29  0  0  0  0            999 V2000
    1.7426   -1.6358    0.0000 C   0  0  0  0  0  0  0  0  0  0  0  0
    1.7426   -2.4608    0.0000 C   0  0  0  0  0  0  0  0  0  0  0  0
    2.4571   -2.8733    0.0000 O   0  0  0  0  0  0  0  0  0  0  0  0
    3.1716   -2.4608    0.0000 C   0  0  0  0  0  0  0  0  0  0  0  0
    3.1716   -1.6358    0.0000 O   0  0  0  0  0  0  0  0  0  0  0  0
    3.8860   -2.8733    0.0000 C   0  0  0  0  0  0  0  0  0  0  0  0
    4.6005   -2.4608    0.0000 C   0  0  0  0  0  0  0  0  0  0  0  0
    5.3150   -2.8733    0.0000 N   0  0  0  0  0  0  0  0  0  0  0  0
    5.3150   -3.6983    0.0000 C   0  0  0  0  0  0  0  0  0  0  0  0
    4.6005   -4.1108    0.0000 C   0  0  0  0  0  0  0  0  0  0  0  0
    4.6005   -4.9358    0.0000 C   0  0  0  0  0  0  0  0  0  0  0  0
    5.3150   -5.3483    0.0000 C   0  0  0  0  0  0  0  0  0  0  0  0
    5.4379   -6.1641    0.0000 N   0  0  0  0  0  0  0  0  0  0  0  0
    4.8768   -6.7689    0.0000 C   0  0  0  0  0  0  0  0  0  0  0  0
    4.0541   -6.7072    0.0000 C   0  0  0  0  0  0  0  0  0  0  0  0
    3.5894   -6.0256    0.0000 N   0  0  0  0  0  0  0  0  0  0  0  0
    3.8325   -5.2372    0.0000 C   0  0  0  0  0  0  0  0  0  0  0  0
    6.0294   -4.9358    0.0000 C   0  0  0  0  0  0  0  0  0  0  0  0
    6.0294   -4.1108    0.0000 C   0  0  0  0  0  0  0  0  0  0  0  0
    4.6005   -1.6358    0.0000 C   0  0  0  0  0  0  0  0  0  0  0  0
    3.8860   -1.2233    0.0000 C   0  0  0  0  0  0  0  0  0  0  0  0
    3.8860   -0.3983    0.0000 C   0  0  0  0  0  0  0  0  0  0  0  0
    4.6005    0.0142    0.0000 C   0  0  0  0  0  0  0  0  0  0  0  0
    4.6005    0.8392    0.0000 Br  0  0  0  0  0  0  0  0  0  0  0  0
    5.3150   -0.3983    0.0000 C   0  0  0  0  0  0  0  0  0  0  0  0
    5.3150   -1.2233    0.0000 C   0  0  0  0  0  0  0  0  0  0  0  0
    6.0294   -1.6358    0.0000 C   0  0  0  0  0  0  0  0  0  0  0  0
  1  2  1  0  0  0  0
  2  3  1  0  0  0  0
  3  4  1  0  0  0  0
  4  5  2  0  0  0  0
  4  6  1  0  0  0  0
  6  7  1  0  0  0  0
  7  8  1  0  0  0  0
  8  9  1  0  0  0  0
  9 10  2  0  0  0  0
 10 11  1  0  0  0  0
 11 12  2  0  0  0  0
 12 13  1  0  0  0  0
 13 14  1  0  0  0  0
 14 15  1  0  0  0  0
 15 16  1  0  0  0  0
 16 17  1  0  0  0  0
 11 17  1  0  0  0  0
 12 18  1  0  0  0  0
 18 19  2  0  0  0  0
  9 19  1  0  0  0  0
  7 20  1  0  0  0  0
 20 21  2  0  0  0  0
 21 22  1  0  0  0  0
 22 23  2  0  0  0  0
 23 24  1  0  0  0  0
 23 25  1  0  0  0  0
 25 26  2  0  0  0  0
 20 26  1  0  0  0  0
 26 27  1  0  0  0  0
M  END
> <ID>
CPD_2255

$$$$
CPD_2260
  Mrv1822 09091914012D          

 25 26  0  0  0  0            999 V2000
   -0.7263    2.1295    0.0000 C   0  0  0  0  0  0  0  0  0  0  0  0
   -0.7263    1.3045    0.0000 O   0  0  0  0  0  0  0  0  0  0  0  0
   -1.4408    0.8920    0.0000 C   0  0  0  0  0  0  0  0  0  0  0  0
   -2.1552    1.3045    0.0000 O   0  0  0  0  0  0  0  0  0  0  0  0
   -1.4408    0.0670    0.0000 C   0  0  0  0  0  0  0  0  0  0  0  0
   -0.7263   -0.3455    0.0000 C   0  0  0  0  0  0  0  0  0  0  0  0
   -0.7263   -1.1705    0.0000 C   0  0  0  0  0  0  0  0  0  0  0  0
   -1.4408   -1.5830    0.0000 C   0  0  0  0  0  0  0  0  0  0  0  0
   -2.1552   -1.1705    0.0000 C   0  0  0  0  0  0  0  0  0  0  0  0
   -2.8697   -1.5830    0.0000 N   0  0  0  0  0  0  0  0  0  0  0  0
   -2.8697   -2.4080    0.0000 C   0  0  0  0  0  0  0  0  0  0  0  0
   -3.6822   -2.2647    0.0000 C   0  0  0  0  0  0  0  0  0  0  0  0
   -4.2125   -2.8967    0.0000 C   0  0  0  0  0  0  0  0  0  0  0  0
   -3.9303   -3.6719    0.0000 O   0  0  0  0  0  0  0  0  0  0  0  0
   -5.0249   -2.7534    0.0000 O   0  0  0  0  0  0  0  0  0  0  0  0
   -2.0572   -2.2647    0.0000 C   0  0  0  0  0  0  0  0  0  0  0  0
   -1.5269   -2.8967    0.0000 C   0  0  0  0  0  0  0  0  0  0  0  0
   -1.8091   -3.6719    0.0000 C   0  0  0  0  0  0  0  0  0  0  0  0
   -2.6216   -3.8152    0.0000 C   0  0  0  0  0  0  0  0  0  0  0  0
   -3.1519   -3.1832    0.0000 C   0  0  0  0  0  0  0  0  0  0  0  0
   -1.2788   -4.3039    0.0000 C   0  0  0  0  0  0  0  0  0  0  0  0
   -0.7485   -4.9359    0.0000 C   0  0  0  0  0  0  0  0  0  0  0  0
   -1.9108   -4.8342    0.0000 C   0  0  0  0  0  0  0  0  0  0  0  0
   -0.6468   -3.7736    0.0000 C   0  0  0  0  0  0  0  0  0  0  0  0
   -2.1552   -0.3455    0.0000 C   0  0  0  0  0  0  0  0  0  0  0  0
  1  2  1  0  0  0  0
  2  3  1  0  0  0  0
  3  4  2  0  0  0  0
  3  5  1  0  0  0  0
  5  6  2  0  0  0  0
  6  7  1  0  0  0  0
  7  8  2  0  0  0  0
  8  9  1  0  0  0  0
  9 10  1  0  0  0  0
 10 11  1  0  0  0  0
 11 12  1  0  0  0  0
 12 13  1  0  0  0  0
 13 14  1  0  0  0  0
 13 15  2  0  0  0  0
 11 16  1  0  0  0  0
 16 17  1  0  0  0  0
 17 18  1  0  0  0  0
 18 19  1  0  0  0  0
 19 20  1  0  0  0  0
 11 20  1  0  0  0  0
 18 21  1  0  0  0  0
 21 22  1  0  0  0  0
 21 23  1  0  0  0  0
 21 24  1  0  0  0  0
  9 25  2  0  0  0  0
  5 25  1  0  0  0  0
M  END
> <ID>
CPD_2260

$$$$
CPD_2265
  Mrv1822 09091914012D          

 34 38  0  0  0  0            999 V2000
    8.6649    2.5559    0.0000 C   0  0  0  0  0  0  0  0  0  0  0  0
    7.8399    2.5559    0.0000 C   0  0  0  0  0  0  0  0  0  0  0  0
    7.4274    3.2704    0.0000 O   0  0  0  0  0  0  0  0  0  0  0  0
    7.4274    1.8414    0.0000 N   0  0  0  0  0  0  0  0  0  0  0  0
    6.6024    1.8414    0.0000 C   0  0  0  0  0  0  0  0  0  0  0  0
    6.1899    1.1270    0.0000 C   0  0  0  0  0  0  0  0  0  0  0  0
    5.3649    1.1270    0.0000 C   0  0  0  0  0  0  0  0  0  0  0  0
    4.9524    0.4125    0.0000 N   0  0  0  0  0  0  0  0  0  0  0  0
    4.1274    0.4125    0.0000 C   0  0  0  0  0  0  0  0  0  0  0  0
    3.6425   -0.2549    0.0000 N   0  0  0  0  0  0  0  0  0  0  0  0
    2.8579   -0.0000    0.0000 C   0  0  0  0  0  0  0  0  0  0  0  0
    2.8579    0.8250    0.0000 C   0  0  0  0  0  0  0  0  0  0  0  0
    3.6425    1.0799    0.0000 S   0  0  0  0  0  0  0  0  0  0  0  0
    2.1434    1.2375    0.0000 C   0  0  0  0  0  0  0  0  0  0  0  0
    2.1434    2.0625    0.0000 O   0  0  0  0  0  0  0  0  0  0  0  0
    1.4289    0.8250    0.0000 C   0  0  0  0  0  0  0  0  0  0  0  0
    1.4289    0.0000    0.0000 C   0  0  0  0  0  0  0  0  0  0  0  0
    0.7145   -0.4125    0.0000 C   0  0  0  0  0  0  0  0  0  0  0  0
    0.0000   -0.0000    0.0000 C   0  0  0  0  0  0  0  0  0  0  0  0
    0.0000    0.8250    0.0000 C   0  0  0  0  0  0  0  0  0  0  0  0
    0.7145    1.2375    0.0000 C   0  0  0  0  0  0  0  0  0  0  0  0
    2.1434   -0.4125    0.0000 C   0  0  0  0  0  0  0  0  0  0  0  0
    2.1434   -1.2375    0.0000 O   0  0  0  0  0  0  0  0  0  0  0  0
    5.3649   -0.3020    0.0000 C   0  0  0  0  0  0  0  0  0  0  0  0
    6.1899   -0.3020    0.0000 C   0  0  0  0  0  0  0  0  0  0  0  0
    6.6024   -1.0164    0.0000 C   0  0  0  0  0  0  0  0  0  0  0  0
    6.1899   -1.7309    0.0000 C   0  0  0  0  0  0  0  0  0  0  0  0
    6.6024   -2.4454    0.0000 F   0  0  0  0  0  0  0  0  0  0  0  0
    5.3649   -1.7309    0.0000 C   0  0  0  0  0  0  0  0  0  0  0  0
    4.9524   -1.0164    0.0000 C   0  0  0  0  0  0  0  0  0  0  0  0
    4.9524    1.8414    0.0000 C   0  0  0  0  0  0  0  0  0  0  0  0
    4.1274    1.8414    0.0000 C   0  0  0  0  0  0  0  0  0  0  0  0
    5.3649    2.5559    0.0000 C   0  0  0  0  0  0  0  0  0  0  0  0
    6.1899    2.5559    0.0000 C   0  0  0  0  0  0  0  0  0  0  0  0
  1  2  1  0  0  0  0
  2  3  2  0  0  0  0
  2  4  1  0  0  0  0
  4  5  1  0  0  0  0
  5  6  2  0  0  0  0
  6  7  1  0  0  0  0
  7  8  1  0  0  0  0
  8  9  1  0  0  0  0
  9 10  2  0  0  0  0
 10 11  1  0  0  0  0
 11 12  2  0  0  0  0
 12 13  1  0  0  0  0
  9 13  1  0  0  0  0
 12 14  1  0  0  0  0
 14 15  2  0  0  0  0
 14 16  1  0  0  0  0
 16 17  2  0  0  0  0
 17 18  1  0  0  0  0
 18 19  2  0  0  0  0
 19 20  1  0  0  0  0
 20 21  2  0  0  0  0
 16 21  1  0  0  0  0
 17 22  1  0  0  0  0
 11 22  1  0  0  0  0
 22 23  2  0  0  0  0
  8 24  1  0  0  0  0
 24 25  2  0  0  0  0
 25 26  1  0  0  0  0
 26 27  2  0  0  0  0
 27 28  1  0  0  0  0
 27 29  1  0  0  0  0
 29 30  2  0  0  0  0
 24 30  1  0  0  0  0
  7 31  2  0  0  0  0
 31 32  1  0  0  0  0
 31 33  1  0  0  0  0
 33 34  2  0  0  0  0
  5 34  1  0  0  0  0
M  END
> <ID>
CPD_2265

$$$$
CPD_2270
  Mrv1822 09091914012D          

 26 28  0  0  0  0            999 V2000
    5.7158   -1.6500    0.0000 C   0  0  0  0  0  0  0  0  0  0  0  0
    5.7158   -2.4750    0.0000 N   0  0  0  0  0  0  0  0  0  0  0  0
    6.4302   -2.8875    0.0000 C   0  0  0  0  0  0  0  0  0  0  0  0
    6.4302   -3.7125    0.0000 C   0  0  0  0  0  0  0  0  0  0  0  0
    7.1447   -4.1250    0.0000 N   0  0  0  0  0  0  0  0  0  0  0  0
    7.1447   -4.9500    0.0000 C   0  0  0  0  0  0  0  0  0  0  0  0
    7.8592   -5.3625    0.0000 C   0  0  0  0  0  0  0  0  0  0  0  0
    7.8592   -6.1875    0.0000 C   0  0  0  0  0  0  0  0  0  0  0  0
    7.1447   -6.6000    0.0000 C   0  0  0  0  0  0  0  0  0  0  0  0
    6.4302   -6.1875    0.0000 C   0  0  0  0  0  0  0  0  0  0  0  0
    6.4302   -5.3625    0.0000 C   0  0  0  0  0  0  0  0  0  0  0  0
    7.1447   -7.4250    0.0000 C   0  0  0  0  0  0  0  0  0  0  0  0
    7.8592   -7.8375    0.0000 O   0  0  0  0  0  0  0  0  0  0  0  0
    6.4302   -7.8375    0.0000 N   0  0  0  0  0  0  0  0  0  0  0  0
    6.4302   -8.6625    0.0000 C   0  0  0  0  0  0  0  0  0  0  0  0
    5.7158   -9.0750    0.0000 C   0  0  0  0  0  0  0  0  0  0  0  0
    5.7158   -9.9000    0.0000 C   0  0  0  0  0  0  0  0  0  0  0  0
    5.0013  -10.3125    0.0000 C   0  0  0  0  0  0  0  0  0  0  0  0
    4.2868   -9.9000    0.0000 C   0  0  0  0  0  0  0  0  0  0  0  0
    3.5724  -10.3125    0.0000 C   0  0  0  0  0  0  0  0  0  0  0  0
    4.2868   -9.0750    0.0000 C   0  0  0  0  0  0  0  0  0  0  0  0
    5.0013   -8.6625    0.0000 C   0  0  0  0  0  0  0  0  0  0  0  0
    5.7158   -4.1250    0.0000 C   0  0  0  0  0  0  0  0  0  0  0  0
    5.0013   -3.7125    0.0000 C   0  0  0  0  0  0  0  0  0  0  0  0
    5.0013   -2.8875    0.0000 C   0  0  0  0  0  0  0  0  0  0  0  0
    4.2868   -2.4750    0.0000 O   0  0  0  0  0  0  0  0  0  0  0  0
  1  2  1  0  0  0  0
  2  3  1  0  0  0  0
  3  4  2  0  0  0  0
  4  5  1  0  0  0  0
  5  6  1  0  0  0  0
  6  7  2  0  0  0  0
  7  8  1  0  0  0  0
  8  9  2  0  0  0  0
  9 10  1  0  0  0  0
 10 11  2  0  0  0  0
  6 11  1  0  0  0  0
  9 12  1  0  0  0  0
 12 13  2  0  0  0  0
 12 14  1  0  0  0  0
 14 15  1  0  0  0  0
 15 16  1  0  0  0  0
 16 17  2  0  0  0  0
 17 18  1  0  0  0  0
 18 19  2  0  0  0  0
 19 20  1  0  0  0  0
 19 21  1  0  0  0  0
 21 22  2  0  0  0  0
 16 22  1  0  0  0  0
  4 23  1  0  0  0  0
 23 24  2  0  0  0  0
 24 25  1  0  0  0  0
  2 25  1  0  0  0  0
 25 26  2  0  0  0  0
M  END
> <ID>
CPD_2270

$$$$
CPD_2275
  Mrv1822 09091914012D          

 24 27  0  0  0  0            999 V2000
   -6.4034   -2.1269    0.0000 C   0  0  0  0  0  0  0  0  0  0  0  0
   -5.5784   -2.1269    0.0000 N   0  0  0  0  0  0  0  0  0  0  0  0
   -5.1659   -1.4124    0.0000 C   0  0  0  0  0  0  0  0  0  0  0  0
   -4.3409   -1.4124    0.0000 C   0  0  0  0  0  0  0  0  0  0  0  0
   -3.9284   -0.6979    0.0000 N   0  0  0  0  0  0  0  0  0  0  0  0
   -3.1034   -0.6979    0.0000 C   0  0  0  0  0  0  0  0  0  0  0  0
   -2.6909    0.0165    0.0000 C   0  0  0  0  0  0  0  0  0  0  0  0
   -1.8659    0.0165    0.0000 C   0  0  0  0  0  0  0  0  0  0  0  0
   -1.4534   -0.6979    0.0000 C   0  0  0  0  0  0  0  0  0  0  0  0
   -1.8659   -1.4124    0.0000 C   0  0  0  0  0  0  0  0  0  0  0  0
   -2.6909   -1.4124    0.0000 C   0  0  0  0  0  0  0  0  0  0  0  0
   -0.6284   -0.6979    0.0000 C   0  0  0  0  0  0  0  0  0  0  0  0
   -0.1435   -1.3654    0.0000 C   0  0  0  0  0  0  0  0  0  0  0  0
    0.6411   -1.1104    0.0000 C   0  0  0  0  0  0  0  0  0  0  0  0
    0.6411   -0.2854    0.0000 C   0  0  0  0  0  0  0  0  0  0  0  0
   -0.1435   -0.0305    0.0000 N   0  0  0  0  0  0  0  0  0  0  0  0
    1.3556    0.1271    0.0000 C   0  0  0  0  0  0  0  0  0  0  0  0
    2.0701   -0.2854    0.0000 C   0  0  0  0  0  0  0  0  0  0  0  0
    2.0701   -1.1104    0.0000 C   0  0  0  0  0  0  0  0  0  0  0  0
    1.3556   -1.5229    0.0000 C   0  0  0  0  0  0  0  0  0  0  0  0
   -3.9284   -2.1269    0.0000 C   0  0  0  0  0  0  0  0  0  0  0  0
   -4.3409   -2.8414    0.0000 C   0  0  0  0  0  0  0  0  0  0  0  0
   -5.1659   -2.8414    0.0000 C   0  0  0  0  0  0  0  0  0  0  0  0
   -5.5784   -3.5558    0.0000 O   0  0  0  0  0  0  0  0  0  0  0  0
  1  2  1  0  0  0  0
  2  3  1  0  0  0  0
  3  4  2  0  0  0  0
  4  5  1  0  0  0  0
  5  6  1  0  0  0  0
  6  7  2  0  0  0  0
  7  8  1  0  0  0  0
  8  9  2  0  0  0  0
  9 10  1  0  0  0  0
 10 11  2  0  0  0  0
  6 11  1  0  0  0  0
  9 12  1  0  0  0  0
 12 13  2  0  0  0  0
 13 14  1  0  0  0  0
 14 15  2  0  0  0  0
 15 16  1  0  0  0  0
 12 16  1  0  0  0  0
 15 17  1  0  0  0  0
 17 18  2  0  0  0  0
 18 19  1  0  0  0  0
 19 20  2  0  0  0  0
 14 20  1  0  0  0  0
  4 21  1  0  0  0  0
 21 22  2  0  0  0  0
 22 23  1  0  0  0  0
  2 23  1  0  0  0  0
 23 24  2  0  0  0  0
M  END
> <ID>
CPD_2275

$$$$
CPD_2280
  Mrv1822 09091914012D          

 22 24  0  0  0  0            999 V2000
    5.6424    0.6979    0.0000 C   0  0  0  0  0  0  0  0  0  0  0  0
    4.9279    1.1104    0.0000 N   0  0  0  0  0  0  0  0  0  0  0  0
    4.2135    0.6979    0.0000 C   0  0  0  0  0  0  0  0  0  0  0  0
    3.4990    1.1104    0.0000 C   0  0  0  0  0  0  0  0  0  0  0  0
    2.7845    0.6979    0.0000 N   0  0  0  0  0  0  0  0  0  0  0  0
    2.0701    1.1104    0.0000 C   0  0  0  0  0  0  0  0  0  0  0  0
    1.3556    0.6979    0.0000 C   0  0  0  0  0  0  0  0  0  0  0  0
    0.6411    1.1104    0.0000 N   0  0  0  0  0  0  0  0  0  0  0  0
   -0.1435    0.8555    0.0000 C   0  0  0  0  0  0  0  0  0  0  0  0
   -0.6284    1.5229    0.0000 C   0  0  0  0  0  0  0  0  0  0  0  0
   -0.1435    2.1904    0.0000 N   0  0  0  0  0  0  0  0  0  0  0  0
    0.6411    1.9354    0.0000 C   0  0  0  0  0  0  0  0  0  0  0  0
    1.3556    2.3479    0.0000 C   0  0  0  0  0  0  0  0  0  0  0  0
    1.3556    3.1729    0.0000 Br  0  0  0  0  0  0  0  0  0  0  0  0
    2.0701    1.9354    0.0000 C   0  0  0  0  0  0  0  0  0  0  0  0
   -1.4534    1.5229    0.0000 C   0  0  0  0  0  0  0  0  0  0  0  0
   -1.8659    2.2374    0.0000 O   0  0  0  0  0  0  0  0  0  0  0  0
   -1.8659    0.8085    0.0000 O   0  0  0  0  0  0  0  0  0  0  0  0
    3.4990    1.9354    0.0000 C   0  0  0  0  0  0  0  0  0  0  0  0
    4.2135    2.3479    0.0000 C   0  0  0  0  0  0  0  0  0  0  0  0
    4.9279    1.9354    0.0000 C   0  0  0  0  0  0  0  0  0  0  0  0
    5.6424    2.3479    0.0000 O   0  0  0  0  0  0  0  0  0  0  0  0
  1  2  1  0  0  0  0
  2  3  1  0  0  0  0
  3  4  2  0  0  0  0
  4  5  1  0  0  0  0
  5  6  1  0  0  0  0
  6  7  2  0  0  0  0
  7  8  1  0  0  0  0
  8  9  1  0  0  0  0
  9 10  2  0  0  0  0
 10 11  1  0  0  0  0
 11 12  2  0  0  0  0
  8 12  1  0  0  0  0
 12 13  1  0  0  0  0
 13 14  1  0  0  0  0
 13 15  2  0  0  0  0
  6 15  1  0  0  0  0
 10 16  1  0  0  0  0
 16 17  1  0  0  0  0
 16 18  2  0  0  0  0
  4 19  1  0  0  0  0
 19 20  2  0  0  0  0
 20 21  1  0  0  0  0
  2 21  1  0  0  0  0
 21 22  2  0  0  0  0
M  END
> <ID>
CPD_2280

$$$$
CPD_2285
  Mrv1822 09091914012D          

 28 31  0  0  0  0            999 V2000
    5.3649   -0.3020    0.0000 C   0  0  0  0  0  0  0  0  0  0  0  0
    4.9524    0.4125    0.0000 N   0  0  0  0  0  0  0  0  0  0  0  0
    4.1274    0.4125    0.0000 C   0  0  0  0  0  0  0  0  0  0  0  0
    3.6425   -0.2549    0.0000 N   0  0  0  0  0  0  0  0  0  0  0  0
    2.8579   -0.0000    0.0000 C   0  0  0  0  0  0  0  0  0  0  0  0
    2.8579    0.8250    0.0000 C   0  0  0  0  0  0  0  0  0  0  0  0
    3.6425    1.0799    0.0000 S   0  0  0  0  0  0  0  0  0  0  0  0
    2.1434    1.2375    0.0000 C   0  0  0  0  0  0  0  0  0  0  0  0
    2.1434    2.0625    0.0000 O   0  0  0  0  0  0  0  0  0  0  0  0
    1.4289    0.8250    0.0000 C   0  0  0  0  0  0  0  0  0  0  0  0
    1.4289    0.0000    0.0000 C   0  0  0  0  0  0  0  0  0  0  0  0
    0.7145   -0.4125    0.0000 C   0  0  0  0  0  0  0  0  0  0  0  0
    0.0000   -0.0000    0.0000 C   0  0  0  0  0  0  0  0  0  0  0  0
    0.0000    0.8250    0.0000 C   0  0  0  0  0  0  0  0  0  0  0  0
    0.7145    1.2375    0.0000 C   0  0  0  0  0  0  0  0  0  0  0  0
    2.1434   -0.4125    0.0000 C   0  0  0  0  0  0  0  0  0  0  0  0
    2.1434   -1.2375    0.0000 O   0  0  0  0  0  0  0  0  0  0  0  0
    5.3649    1.1270    0.0000 C   0  0  0  0  0  0  0  0  0  0  0  0
    4.9524    1.8414    0.0000 C   0  0  0  0  0  0  0  0  0  0  0  0
    5.3649    2.5559    0.0000 C   0  0  0  0  0  0  0  0  0  0  0  0
    6.1899    2.5559    0.0000 C   0  0  0  0  0  0  0  0  0  0  0  0
    6.6024    1.8414    0.0000 C   0  0  0  0  0  0  0  0  0  0  0  0
    7.4274    1.8414    0.0000 O   0  0  0  0  0  0  0  0  0  0  0  0
    7.8399    2.5559    0.0000 C   0  0  0  0  0  0  0  0  0  0  0  0
    8.6649    2.5559    0.0000 C   0  0  0  0  0  0  0  0  0  0  0  0
    9.0774    3.2704    0.0000 O   0  0  0  0  0  0  0  0  0  0  0  0
    9.0774    1.8414    0.0000 O   0  0  0  0  0  0  0  0  0  0  0  0
    6.1899    1.1270    0.0000 C   0  0  0  0  0  0  0  0  0  0  0  0
  1  2  1  0  0  0  0
  2  3  1  0  0  0  0
  3  4  2  0  0  0  0
  4  5  1  0  0  0  0
  5  6  2  0  0  0  0
  6  7  1  0  0  0  0
  3  7  1  0  0  0  0
  6  8  1  0  0  0  0
  8  9  2  0  0  0  0
  8 10  1  0  0  0  0
 10 11  2  0  0  0  0
 11 12  1  0  0  0  0
 12 13  2  0  0  0  0
 13 14  1  0  0  0  0
 14 15  2  0  0  0  0
 10 15  1  0  0  0  0
 11 16  1  0  0  0  0
  5 16  1  0  0  0  0
 16 17  2  0  0  0  0
  2 18  1  0  0  0  0
 18 19  2  0  0  0  0
 19 20  1  0  0  0  0
 20 21  2  0  0  0  0
 21 22  1  0  0  0  0
 22 23  1  0  0  0  0
 23 24  1  0  0  0  0
 24 25  1  0  0  0  0
 25 26  1  0  0  0  0
 25 27  2  0  0  0  0
 22 28  2  0  0  0  0
 18 28  1  0  0  0  0
M  END
> <ID>
CPD_2285

$$$$
CPD_2290
  Mrv1822 09091914012D          

 33 36  0  0  0  0            999 V2000
    7.8399    1.1270    0.0000 C   0  0  0  0  0  0  0  0  0  0  0  0
    7.4274    0.4125    0.0000 C   0  0  0  0  0  0  0  0  0  0  0  0
    6.6024    0.4125    0.0000 S   0  0  0  0  0  0  0  0  0  0  0  0
    6.1899    1.1270    0.0000 C   0  0  0  0  0  0  0  0  0  0  0  0
    5.3649    1.1270    0.0000 C   0  0  0  0  0  0  0  0  0  0  0  0
    4.9524    1.8414    0.0000 C   0  0  0  0  0  0  0  0  0  0  0  0
    5.3649    2.5559    0.0000 C   0  0  0  0  0  0  0  0  0  0  0  0
    6.1899    2.5559    0.0000 C   0  0  0  0  0  0  0  0  0  0  0  0
    6.6024    1.8414    0.0000 N   0  0  0  0  0  0  0  0  0  0  0  0
    4.9524    3.2704    0.0000 C   0  0  0  0  0  0  0  0  0  0  0  0
    4.5399    3.9849    0.0000 F   0  0  0  0  0  0  0  0  0  0  0  0
    5.6669    3.6829    0.0000 F   0  0  0  0  0  0  0  0  0  0  0  0
    4.2380    2.8579    0.0000 F   0  0  0  0  0  0  0  0  0  0  0  0
    4.9524    0.4125    0.0000 N   0  0  0  0  0  0  0  0  0  0  0  0
    5.3649   -0.3020    0.0000 C   0  0  0  0  0  0  0  0  0  0  0  0
    4.1274    0.4125    0.0000 C   0  0  0  0  0  0  0  0  0  0  0  0
    3.6425   -0.2549    0.0000 N   0  0  0  0  0  0  0  0  0  0  0  0
    2.8579   -0.0000    0.0000 C   0  0  0  0  0  0  0  0  0  0  0  0
    2.8579    0.8250    0.0000 C   0  0  0  0  0  0  0  0  0  0  0  0
    3.6425    1.0799    0.0000 S   0  0  0  0  0  0  0  0  0  0  0  0
    2.1434    1.2375    0.0000 C   0  0  0  0  0  0  0  0  0  0  0  0
    2.1434    2.0625    0.0000 O   0  0  0  0  0  0  0  0  0  0  0  0
    1.4289    0.8250    0.0000 C   0  0  0  0  0  0  0  0  0  0  0  0
    1.4289    0.0000    0.0000 C   0  0  0  0  0  0  0  0  0  0  0  0
    0.7145   -0.4125    0.0000 C   0  0  0  0  0  0  0  0  0  0  0  0
    0.0000   -0.0000    0.0000 C   0  0  0  0  0  0  0  0  0  0  0  0
    0.0000    0.8250    0.0000 C   0  0  0  0  0  0  0  0  0  0  0  0
    0.7145    1.2375    0.0000 C   0  0  0  0  0  0  0  0  0  0  0  0
    2.1434   -0.4125    0.0000 C   0  0  0  0  0  0  0  0  0  0  0  0
    2.1434   -1.2375    0.0000 O   0  0  0  0  0  0  0  0  0  0  0  0
    7.8399   -0.3020    0.0000 C   0  0  0  0  0  0  0  0  0  0  0  0
    8.6649   -0.3020    0.0000 O   0  0  0  0  0  0  0  0  0  0  0  0
    7.4274   -1.0164    0.0000 O   0  0  0  0  0  0  0  0  0  0  0  0
  1  2  1  0  0  0  0
  2  3  1  0  0  0  0
  3  4  1  0  0  0  0
  4  5  2  0  0  0  0
  5  6  1  0  0  0  0
  6  7  2  0  0  0  0
  7  8  1  0  0  0  0
  8  9  2  0  0  0  0
  4  9  1  0  0  0  0
  7 10  1  0  0  0  0
 10 11  1  0  0  0  0
 10 12  1  0  0  0  0
 10 13  1  0  0  0  0
  5 14  1  0  0  0  0
 14 15  1  0  0  0  0
 14 16  1  0  0  0  0
 16 17  2  0  0  0  0
 17 18  1  0  0  0  0
 18 19  2  0  0  0  0
 19 20  1  0  0  0  0
 16 20  1  0  0  0  0
 19 21  1  0  0  0  0
 21 22  2  0  0  0  0
 21 23  1  0  0  0  0
 23 24  2  0  0  0  0
 24 25  1  0  0  0  0
 25 26  2  0  0  0  0
 26 27  1  0  0  0  0
 27 28  2  0  0  0  0
 23 28  1  0  0  0  0
 24 29  1  0  0  0  0
 18 29  1  0  0  0  0
 29 30  2  0  0  0  0
  2 31  1  0  0  0  0
 31 32  1  0  0  0  0
 31 33  2  0  0  0  0
M  END
> <ID>
CPD_2290

$$$$
CPD_2295
  Mrv1822 09091914012D          

 28 31  0  0  0  0            999 V2000
    5.3649    1.1270    0.0000 C   0  0  0  0  0  0  0  0  0  0  0  0
    4.9524    0.4125    0.0000 N   0  0  0  0  0  0  0  0  0  0  0  0
    4.1274    0.4125    0.0000 C   0  0  0  0  0  0  0  0  0  0  0  0
    3.6425   -0.2549    0.0000 N   0  0  0  0  0  0  0  0  0  0  0  0
    2.8579   -0.0000    0.0000 C   0  0  0  0  0  0  0  0  0  0  0  0
    2.8579    0.8250    0.0000 C   0  0  0  0  0  0  0  0  0  0  0  0
    3.6425    1.0799    0.0000 S   0  0  0  0  0  0  0  0  0  0  0  0
    2.1434    1.2375    0.0000 C   0  0  0  0  0  0  0  0  0  0  0  0
    2.1434    2.0625    0.0000 O   0  0  0  0  0  0  0  0  0  0  0  0
    1.4289    0.8250    0.0000 C   0  0  0  0  0  0  0  0  0  0  0  0
    1.4289    0.0000    0.0000 C   0  0  0  0  0  0  0  0  0  0  0  0
    0.7145   -0.4125    0.0000 C   0  0  0  0  0  0  0  0  0  0  0  0
    0.0000   -0.0000    0.0000 C   0  0  0  0  0  0  0  0  0  0  0  0
    0.0000    0.8250    0.0000 C   0  0  0  0  0  0  0  0  0  0  0  0
    0.7145    1.2375    0.0000 C   0  0  0  0  0  0  0  0  0  0  0  0
    2.1434   -0.4125    0.0000 C   0  0  0  0  0  0  0  0  0  0  0  0
    2.1434   -1.2375    0.0000 O   0  0  0  0  0  0  0  0  0  0  0  0
    5.3649   -0.3020    0.0000 C   0  0  0  0  0  0  0  0  0  0  0  0
    6.1899   -0.3020    0.0000 C   0  0  0  0  0  0  0  0  0  0  0  0
    6.6024   -1.0164    0.0000 C   0  0  0  0  0  0  0  0  0  0  0  0
    6.1899   -1.7309    0.0000 C   0  0  0  0  0  0  0  0  0  0  0  0
    6.6024   -2.4454    0.0000 N   0  0  0  0  0  0  0  0  0  0  0  0
    5.3649   -1.7309    0.0000 C   0  0  0  0  0  0  0  0  0  0  0  0
    4.9524   -1.0164    0.0000 C   0  0  0  0  0  0  0  0  0  0  0  0
    7.4274   -1.0164    0.0000 S   0  0  0  0  0  0  0  0  0  0  0  0
    8.2524   -1.0164    0.0000 C   0  0  0  0  0  0  0  0  0  0  0  0
    7.4274   -1.8414    0.0000 O   0  0  0  0  0  0  0  0  0  0  0  0
    7.4274   -0.1914    0.0000 O   0  0  0  0  0  0  0  0  0  0  0  0
  1  2  1  0  0  0  0
  2  3  1  0  0  0  0
  3  4  2  0  0  0  0
  4  5  1  0  0  0  0
  5  6  2  0  0  0  0
  6  7  1  0  0  0  0
  3  7  1  0  0  0  0
  6  8  1  0  0  0  0
  8  9  2  0  0  0  0
  8 10  1  0  0  0  0
 10 11  2  0  0  0  0
 11 12  1  0  0  0  0
 12 13  2  0  0  0  0
 13 14  1  0  0  0  0
 14 15  2  0  0  0  0
 10 15  1  0  0  0  0
 11 16  1  0  0  0  0
  5 16  1  0  0  0  0
 16 17  2  0  0  0  0
  2 18  1  0  0  0  0
 18 19  2  0  0  0  0
 19 20  1  0  0  0  0
 20 21  2  0  0  0  0
 21 22  1  0  0  0  0
 21 23  1  0  0  0  0
 23 24  2  0  0  0  0
 18 24  1  0  0  0  0
 20 25  1  0  0  0  0
 25 26  1  0  0  0  0
 25 27  2  0  0  0  0
 25 28  2  0  0  0  0
M  END
> <ID>
CPD_2295

$$$$
CPD_2300
  Mrv1822 09091914012D          

 29 31  0  0  0  0            999 V2000
   -2.2539   -2.4750    0.0000 C   0  0  0  0  0  0  0  0  0  0  0  0
   -1.4289   -2.4750    0.0000 S   0  0  0  0  0  0  0  0  0  0  0  0
   -0.6039   -2.4750    0.0000 O   0  0  0  0  0  0  0  0  0  0  0  0
   -1.4289   -3.3000    0.0000 O   0  0  0  0  0  0  0  0  0  0  0  0
   -1.4289   -1.6500    0.0000 N   0  0  0  0  0  0  0  0  0  0  0  0
   -2.1434   -1.2375    0.0000 C   0  0  0  0  0  0  0  0  0  0  0  0
   -2.8579   -1.6500    0.0000 C   0  0  0  0  0  0  0  0  0  0  0  0
   -3.5724   -1.2375    0.0000 C   0  0  0  0  0  0  0  0  0  0  0  0
   -3.5724   -0.4125    0.0000 C   0  0  0  0  0  0  0  0  0  0  0  0
   -4.2868    0.0000    0.0000 C   0  0  0  0  0  0  0  0  0  0  0  0
   -4.2868    0.8250    0.0000 O   0  0  0  0  0  0  0  0  0  0  0  0
   -5.0013   -0.4125    0.0000 O   0  0  0  0  0  0  0  0  0  0  0  0
   -2.8579    0.0000    0.0000 C   0  0  0  0  0  0  0  0  0  0  0  0
   -2.1434   -0.4125    0.0000 C   0  0  0  0  0  0  0  0  0  0  0  0
   -2.8579    0.8250    0.0000 C   0  0  0  0  0  0  0  0  0  0  0  0
   -2.8579    1.6500    0.0000 F   0  0  0  0  0  0  0  0  0  0  0  0
   -2.0329    0.8250    0.0000 F   0  0  0  0  0  0  0  0  0  0  0  0
   -3.6829    0.8250    0.0000 F   0  0  0  0  0  0  0  0  0  0  0  0
   -0.7145   -1.2375    0.0000 C   0  0  0  0  0  0  0  0  0  0  0  0
    0.0000   -1.6500    0.0000 N   0  0  0  0  0  0  0  0  0  0  0  0
    0.7145   -1.2375    0.0000 C   0  0  0  0  0  0  0  0  0  0  0  0
    0.7145   -0.4125    0.0000 C   0  0  0  0  0  0  0  0  0  0  0  0
    1.4289   -0.0000    0.0000 C   0  0  0  0  0  0  0  0  0  0  0  0
    2.1434   -0.4125    0.0000 C   0  0  0  0  0  0  0  0  0  0  0  0
    2.1434   -1.2375    0.0000 C   0  0  0  0  0  0  0  0  0  0  0  0
    1.4289   -1.6500    0.0000 C   0  0  0  0  0  0  0  0  0  0  0  0
    1.4289   -2.4750    0.0000 Br  0  0  0  0  0  0  0  0  0  0  0  0
    0.0000   -0.0000    0.0000 N   0  0  0  0  0  0  0  0  0  0  0  0
   -0.7145   -0.4125    0.0000 C   0  0  0  0  0  0  0  0  0  0  0  0
  1  2  1  0  0  0  0
  2  3  2  0  0  0  0
  2  4  2  0  0  0  0
  2  5  1  0  0  0  0
  5  6  1  0  0  0  0
  6  7  2  0  0  0  0
  7  8  1  0  0  0  0
  8  9  2  0  0  0  0
  9 10  1  0  0  0  0
 10 11  1  0  0  0  0
 10 12  2  0  0  0  0
  9 13  1  0  0  0  0
 13 14  2  0  0  0  0
  6 14  1  0  0  0  0
 13 15  1  0  0  0  0
 15 16  1  0  0  0  0
 15 17  1  0  0  0  0
 15 18  1  0  0  0  0
  5 19  1  0  0  0  0
 19 20  2  0  0  0  0
 20 21  1  0  0  0  0
 21 22  2  0  0  0  0
 22 23  1  0  0  0  0
 23 24  2  0  0  0  0
 24 25  1  0  0  0  0
 25 26  2  0  0  0  0
 21 26  1  0  0  0  0
 26 27  1  0  0  0  0
 22 28  1  0  0  0  0
 28 29  2  0  0  0  0
 19 29  1  0  0  0  0
M  END
> <ID>
CPD_2300

$$$$
CPD_2305
  Mrv1822 09091914012D          

 29 31  0  0  0  0            999 V2000
   -1.4534   -0.6979    0.0000 C   0  0  0  0  0  0  0  0  0  0  0  0
   -0.6284   -0.6979    0.0000 N   0  0  0  0  0  0  0  0  0  0  0  0
   -0.1435   -1.3654    0.0000 C   0  0  0  0  0  0  0  0  0  0  0  0
    0.6411   -1.1104    0.0000 C   0  0  0  0  0  0  0  0  0  0  0  0
    0.6411   -0.2854    0.0000 C   0  0  0  0  0  0  0  0  0  0  0  0
   -0.1435   -0.0305    0.0000 N   0  0  0  0  0  0  0  0  0  0  0  0
    1.3556    0.1271    0.0000 N   0  0  0  0  0  0  0  0  0  0  0  0
    2.0701   -0.2854    0.0000 C   0  0  0  0  0  0  0  0  0  0  0  0
    2.0701   -1.1104    0.0000 C   0  0  0  0  0  0  0  0  0  0  0  0
    1.3556   -1.5229    0.0000 C   0  0  0  0  0  0  0  0  0  0  0  0
    1.3556   -2.3479    0.0000 C   0  0  0  0  0  0  0  0  0  0  0  0
    2.7845    0.1271    0.0000 N   0  0  0  0  0  0  0  0  0  0  0  0
    3.4990   -0.2854    0.0000 C   0  0  0  0  0  0  0  0  0  0  0  0
    4.2135    0.1271    0.0000 C   0  0  0  0  0  0  0  0  0  0  0  0
    4.9279   -0.2854    0.0000 C   0  0  0  0  0  0  0  0  0  0  0  0
    4.9279   -1.1104    0.0000 C   0  0  0  0  0  0  0  0  0  0  0  0
    5.6424   -1.5229    0.0000 C   0  0  0  0  0  0  0  0  0  0  0  0
    6.3569   -1.1104    0.0000 O   0  0  0  0  0  0  0  0  0  0  0  0
    5.6424   -2.3479    0.0000 O   0  0  0  0  0  0  0  0  0  0  0  0
    4.2135   -1.5229    0.0000 C   0  0  0  0  0  0  0  0  0  0  0  0
    3.4990   -1.1104    0.0000 C   0  0  0  0  0  0  0  0  0  0  0  0
    4.2135   -2.3479    0.0000 C   0  0  0  0  0  0  0  0  0  0  0  0
    4.2135   -3.1729    0.0000 F   0  0  0  0  0  0  0  0  0  0  0  0
    3.3885   -2.3479    0.0000 F   0  0  0  0  0  0  0  0  0  0  0  0
    5.0385   -2.3479    0.0000 F   0  0  0  0  0  0  0  0  0  0  0  0
    2.7845    0.9521    0.0000 S   0  0  0  0  0  0  0  0  0  0  0  0
    2.7845    1.7771    0.0000 C   0  0  0  0  0  0  0  0  0  0  0  0
    3.6095    0.9521    0.0000 O   0  0  0  0  0  0  0  0  0  0  0  0
    1.9595    0.9521    0.0000 O   0  0  0  0  0  0  0  0  0  0  0  0
  1  2  1  0  0  0  0
  2  3  1  0  0  0  0
  3  4  2  0  0  0  0
  4  5  1  0  0  0  0
  5  6  2  0  0  0  0
  2  6  1  0  0  0  0
  5  7  1  0  0  0  0
  7  8  2  0  0  0  0
  8  9  1  0  0  0  0
  9 10  2  0  0  0  0
  4 10  1  0  0  0  0
 10 11  1  0  0  0  0
  8 12  1  0  0  0  0
 12 13  1  0  0  0  0
 13 14  2  0  0  0  0
 14 15  1  0  0  0  0
 15 16  2  0  0  0  0
 16 17  1  0  0  0  0
 17 18  1  0  0  0  0
 17 19  2  0  0  0  0
 16 20  1  0  0  0  0
 20 21  2  0  0  0  0
 13 21  1  0  0  0  0
 20 22  1  0  0  0  0
 22 23  1  0  0  0  0
 22 24  1  0  0  0  0
 22 25  1  0  0  0  0
 12 26  1  0  0  0  0
 26 27  1  0  0  0  0
 26 28  2  0  0  0  0
 26 29  2  0  0  0  0
M  END
> <ID>
CPD_2305

$$$$
CPD_2310
  Mrv1822 09091914012D          

 32 34  0  0  0  0            999 V2000
    1.8414   -3.1895    0.0000 C   0  0  0  0  0  0  0  0  0  0  0  0
    1.4289   -2.4750    0.0000 S   0  0  0  0  0  0  0  0  0  0  0  0
    1.0164   -1.7605    0.0000 O   0  0  0  0  0  0  0  0  0  0  0  0
    2.1434   -2.0625    0.0000 O   0  0  0  0  0  0  0  0  0  0  0  0
    0.7145   -2.8875    0.0000 N   0  0  0  0  0  0  0  0  0  0  0  0
    0.7145   -3.7125    0.0000 C   0  0  0  0  0  0  0  0  0  0  0  0
    1.4289   -4.1250    0.0000 C   0  0  0  0  0  0  0  0  0  0  0  0
    1.4289   -4.9500    0.0000 C   0  0  0  0  0  0  0  0  0  0  0  0
    0.7145   -5.3625    0.0000 C   0  0  0  0  0  0  0  0  0  0  0  0
    0.7145   -6.1875    0.0000 C   0  0  0  0  0  0  0  0  0  0  0  0
    0.0000   -6.6000    0.0000 O   0  0  0  0  0  0  0  0  0  0  0  0
    1.4289   -6.6000    0.0000 O   0  0  0  0  0  0  0  0  0  0  0  0
    0.0000   -4.9500    0.0000 C   0  0  0  0  0  0  0  0  0  0  0  0
    0.0000   -4.1250    0.0000 C   0  0  0  0  0  0  0  0  0  0  0  0
   -0.7145   -5.3625    0.0000 C   0  0  0  0  0  0  0  0  0  0  0  0
   -1.4289   -5.7750    0.0000 F   0  0  0  0  0  0  0  0  0  0  0  0
   -1.1270   -4.6480    0.0000 F   0  0  0  0  0  0  0  0  0  0  0  0
   -0.3020   -6.0770    0.0000 F   0  0  0  0  0  0  0  0  0  0  0  0
    0.0000   -2.4750    0.0000 C   0  0  0  0  0  0  0  0  0  0  0  0
   -0.7145   -2.8875    0.0000 C   0  0  0  0  0  0  0  0  0  0  0  0
   -1.4289   -2.4750    0.0000 C   0  0  0  0  0  0  0  0  0  0  0  0
   -2.1434   -2.8875    0.0000 C   0  0  0  0  0  0  0  0  0  0  0  0
   -2.8579   -2.4750    0.0000 N   0  0  0  0  0  0  0  0  0  0  0  0
   -3.5724   -2.8875    0.0000 C   0  0  0  0  0  0  0  0  0  0  0  0
   -4.2868   -2.4750    0.0000 C   0  0  0  0  0  0  0  0  0  0  0  0
   -4.2868   -1.6500    0.0000 N   0  0  0  0  0  0  0  0  0  0  0  0
   -3.5724   -1.2375    0.0000 C   0  0  0  0  0  0  0  0  0  0  0  0
   -2.8579   -1.6500    0.0000 C   0  0  0  0  0  0  0  0  0  0  0  0
   -1.4289   -1.6500    0.0000 C   0  0  0  0  0  0  0  0  0  0  0  0
   -0.7145   -1.2375    0.0000 C   0  0  0  0  0  0  0  0  0  0  0  0
    0.0000   -1.6500    0.0000 C   0  0  0  0  0  0  0  0  0  0  0  0
    0.7145   -1.2375    0.0000 Cl  0  0  0  0  0  0  0  0  0  0  0  0
  1  2  1  0  0  0  0
  2  3  2  0  0  0  0
  2  4  2  0  0  0  0
  2  5  1  0  0  0  0
  5  6  1  0  0  0  0
  6  7  2  0  0  0  0
  7  8  1  0  0  0  0
  8  9  2  0  0  0  0
  9 10  1  0  0  0  0
 10 11  1  0  0  0  0
 10 12  2  0  0  0  0
  9 13  1  0  0  0  0
 13 14  2  0  0  0  0
  6 14  1  0  0  0  0
 13 15  1  0  0  0  0
 15 16  1  0  0  0  0
 15 17  1  0  0  0  0
 15 18  1  0  0  0  0
  5 19  1  0  0  0  0
 19 20  2  0  0  0  0
 20 21  1  0  0  0  0
 21 22  1  0  0  0  0
 22 23  1  0  0  0  0
 23 24  1  0  0  0  0
 24 25  1  0  0  0  0
 25 26  1  0  0  0  0
 26 27  1  0  0  0  0
 27 28  1  0  0  0  0
 23 28  1  0  0  0  0
 21 29  2  0  0  0  0
 29 30  1  0  0  0  0
 30 31  2  0  0  0  0
 19 31  1  0  0  0  0
 31 32  1  0  0  0  0
M  END
> <ID>
CPD_2310

$$$$
CPD_2315
  Mrv1822 09091914012D          

 23 25  0  0  0  0            999 V2000
    4.7812    1.1104    0.0000 C   0  0  0  0  0  0  0  0  0  0  0  0
    4.7812    1.9354    0.0000 C   0  0  0  0  0  0  0  0  0  0  0  0
    5.4957    2.3479    0.0000 C   0  0  0  0  0  0  0  0  0  0  0  0
    5.4957    3.1729    0.0000 C   0  0  0  0  0  0  0  0  0  0  0  0
    4.7812    3.5854    0.0000 C   0  0  0  0  0  0  0  0  0  0  0  0
    4.7812    4.4104    0.0000 C   0  0  0  0  0  0  0  0  0  0  0  0
    5.4957    4.8229    0.0000 C   0  0  0  0  0  0  0  0  0  0  0  0
    6.2102    4.4104    0.0000 C   0  0  0  0  0  0  0  0  0  0  0  0
    6.2102    3.5854    0.0000 C   0  0  0  0  0  0  0  0  0  0  0  0
    4.0668    2.3479    0.0000 N   0  0  0  0  0  0  0  0  0  0  0  0
    4.0668    3.1729    0.0000 C   0  0  0  0  0  0  0  0  0  0  0  0
    3.3523    1.9354    0.0000 C   0  0  0  0  0  0  0  0  0  0  0  0
    3.3523    1.1104    0.0000 C   0  0  0  0  0  0  0  0  0  0  0  0
    2.6378    0.6979    0.0000 N   0  0  0  0  0  0  0  0  0  0  0  0
    1.9233    1.1104    0.0000 C   0  0  0  0  0  0  0  0  0  0  0  0
    1.1387    0.8555    0.0000 N   0  0  0  0  0  0  0  0  0  0  0  0
    0.6538    1.5229    0.0000 C   0  0  0  0  0  0  0  0  0  0  0  0
    1.1387    2.1904    0.0000 N   0  0  0  0  0  0  0  0  0  0  0  0
    1.9233    1.9354    0.0000 C   0  0  0  0  0  0  0  0  0  0  0  0
    2.6378    2.3479    0.0000 C   0  0  0  0  0  0  0  0  0  0  0  0
    2.6378    3.1729    0.0000 C   0  0  0  0  0  0  0  0  0  0  0  0
    3.3523    3.5854    0.0000 O   0  0  0  0  0  0  0  0  0  0  0  0
    1.9233    3.5854    0.0000 O   0  0  0  0  0  0  0  0  0  0  0  0
  1  2  1  0  0  0  0
  2  3  1  0  0  0  0
  3  4  1  0  0  0  0
  4  5  1  0  0  0  0
  5  6  1  0  0  0  0
  6  7  1  0  0  0  0
  7  8  1  0  0  0  0
  8  9  1  0  0  0  0
  4  9  1  0  0  0  0
  2 10  1  0  0  0  0
 10 11  1  0  0  0  0
 10 12  1  0  0  0  0
 12 13  2  0  0  0  0
 13 14  1  0  0  0  0
 14 15  2  0  0  0  0
 15 16  1  0  0  0  0
 16 17  1  0  0  0  0
 17 18  2  0  0  0  0
 18 19  1  0  0  0  0
 15 19  1  0  0  0  0
 19 20  2  0  0  0  0
 12 20  1  0  0  0  0
 20 21  1  0  0  0  0
 21 22  1  0  0  0  0
 21 23  2  0  0  0  0
M  END
> <ID>
CPD_2315

$$$$
CPD_2320
  Mrv1822 09091914012D          

 33 37  0  0  0  0            999 V2000
    9.6730    5.4896    0.0000 C   0  0  0  0  0  0  0  0  0  0  0  0
    9.0599    4.9375    0.0000 C   0  0  0  0  0  0  0  0  0  0  0  0
    8.2753    5.1925    0.0000 O   0  0  0  0  0  0  0  0  0  0  0  0
    7.6622    4.6404    0.0000 C   0  0  0  0  0  0  0  0  0  0  0  0
    7.8338    3.8335    0.0000 O   0  0  0  0  0  0  0  0  0  0  0  0
    6.8776    4.8954    0.0000 C   0  0  0  0  0  0  0  0  0  0  0  0
    6.2102    4.4104    0.0000 C   0  0  0  0  0  0  0  0  0  0  0  0
    6.2102    3.5854    0.0000 C   0  0  0  0  0  0  0  0  0  0  0  0
    5.4957    3.1729    0.0000 C   0  0  0  0  0  0  0  0  0  0  0  0
    5.4957    2.3479    0.0000 C   0  0  0  0  0  0  0  0  0  0  0  0
    4.7812    1.9354    0.0000 C   0  0  0  0  0  0  0  0  0  0  0  0
    4.0668    2.3479    0.0000 C   0  0  0  0  0  0  0  0  0  0  0  0
    4.0668    3.1729    0.0000 C   0  0  0  0  0  0  0  0  0  0  0  0
    4.7812    3.5854    0.0000 C   0  0  0  0  0  0  0  0  0  0  0  0
    3.3523    1.9354    0.0000 N   0  0  0  0  0  0  0  0  0  0  0  0
    3.3523    1.1104    0.0000 C   0  0  0  0  0  0  0  0  0  0  0  0
    2.6378    0.6979    0.0000 C   0  0  0  0  0  0  0  0  0  0  0  0
    1.9233    1.1104    0.0000 C   0  0  0  0  0  0  0  0  0  0  0  0
    1.9233    1.9354    0.0000 C   0  0  0  0  0  0  0  0  0  0  0  0
    2.6378    2.3479    0.0000 C   0  0  0  0  0  0  0  0  0  0  0  0
    1.1387    2.1904    0.0000 S   0  0  0  0  0  0  0  0  0  0  0  0
    0.6538    1.5229    0.0000 C   0  0  0  0  0  0  0  0  0  0  0  0
    1.1387    0.8555    0.0000 N   0  0  0  0  0  0  0  0  0  0  0  0
   -0.1712    1.5229    0.0000 C   0  0  0  0  0  0  0  0  0  0  0  0
   -0.5837    0.8085    0.0000 C   0  0  0  0  0  0  0  0  0  0  0  0
   -1.4087    0.8085    0.0000 C   0  0  0  0  0  0  0  0  0  0  0  0
   -1.8212    1.5229    0.0000 C   0  0  0  0  0  0  0  0  0  0  0  0
   -2.6462    1.5229    0.0000 C   0  0  0  0  0  0  0  0  0  0  0  0
   -1.4087    2.2374    0.0000 C   0  0  0  0  0  0  0  0  0  0  0  0
   -0.5837    2.2374    0.0000 C   0  0  0  0  0  0  0  0  0  0  0  0
    5.5427    4.8954    0.0000 N   0  0  0  0  0  0  0  0  0  0  0  0
    5.7977    5.6800    0.0000 N   0  0  0  0  0  0  0  0  0  0  0  0
    6.6227    5.6800    0.0000 C   0  0  0  0  0  0  0  0  0  0  0  0
  1  2  1  0  0  0  0
  2  3  1  0  0  0  0
  3  4  1  0  0  0  0
  4  5  2  0  0  0  0
  4  6  1  0  0  0  0
  6  7  2  0  0  0  0
  7  8  1  0  0  0  0
  8  9  1  0  0  0  0
  9 10  2  0  0  0  0
 10 11  1  0  0  0  0
 11 12  2  0  0  0  0
 12 13  1  0  0  0  0
 13 14  2  0  0  0  0
  9 14  1  0  0  0  0
 12 15  1  0  0  0  0
 15 16  1  0  0  0  0
 16 17  1  0  0  0  0
 17 18  1  0  0  0  0
 18 19  2  0  0  0  0
 19 20  1  0  0  0  0
 15 20  1  0  0  0  0
 19 21  1  0  0  0  0
 21 22  1  0  0  0  0
 22 23  2  0  0  0  0
 18 23  1  0  0  0  0
 22 24  1  0  0  0  0
 24 25  2  0  0  0  0
 25 26  1  0  0  0  0
 26 27  2  0  0  0  0
 27 28  1  0  0  0  0
 27 29  1  0  0  0  0
 29 30  2  0  0  0  0
 24 30  1  0  0  0  0
  7 31  1  0  0  0  0
 31 32  1  0  0  0  0
 32 33  2  0  0  0  0
  6 33  1  0  0  0  0
M  END
> <ID>
CPD_2320

$$$$
CPD_2325
  Mrv1822 09091914012D          

 27 29  0  0  0  0            999 V2000
    1.4289   -4.1250    0.0000 O   0  0  0  0  0  0  0  0  0  0  0  0
    1.4289   -4.9500    0.0000 C   0  0  0  0  0  0  0  0  0  0  0  0
    2.1434   -5.3625    0.0000 C   0  0  0  0  0  0  0  0  0  0  0  0
    2.1434   -6.1875    0.0000 C   0  0  0  0  0  0  0  0  0  0  0  0
    1.4289   -6.6000    0.0000 C   0  0  0  0  0  0  0  0  0  0  0  0
    0.7145   -6.1875    0.0000 C   0  0  0  0  0  0  0  0  0  0  0  0
    0.7145   -5.3625    0.0000 C   0  0  0  0  0  0  0  0  0  0  0  0
    0.0000   -4.9500    0.0000 N   0  0  0  0  0  0  0  0  0  0  0  0
    0.0000   -4.1250    0.0000 C   0  0  0  0  0  0  0  0  0  0  0  0
   -0.7145   -3.7125    0.0000 C   0  0  0  0  0  0  0  0  0  0  0  0
   -0.7145   -2.8875    0.0000 C   0  0  0  0  0  0  0  0  0  0  0  0
    0.0000   -2.4750    0.0000 C   0  0  0  0  0  0  0  0  0  0  0  0
    0.0000   -1.6500    0.0000 N   0  0  0  0  0  0  0  0  0  0  0  0
    0.7145   -1.2375    0.0000 C   0  0  0  0  0  0  0  0  0  0  0  0
    1.4289   -1.6500    0.0000 O   0  0  0  0  0  0  0  0  0  0  0  0
    0.7145   -0.4125    0.0000 C   0  0  0  0  0  0  0  0  0  0  0  0
    0.0000    0.0000    0.0000 C   0  0  0  0  0  0  0  0  0  0  0  0
    0.0000    0.8250    0.0000 C   0  0  0  0  0  0  0  0  0  0  0  0
    0.7145    1.2375    0.0000 C   0  0  0  0  0  0  0  0  0  0  0  0
    0.7145    2.0625    0.0000 Br  0  0  0  0  0  0  0  0  0  0  0  0
    1.4289    0.8250    0.0000 C   0  0  0  0  0  0  0  0  0  0  0  0
    1.4289    0.0000    0.0000 C   0  0  0  0  0  0  0  0  0  0  0  0
    0.7145   -2.8875    0.0000 C   0  0  0  0  0  0  0  0  0  0  0  0
    1.4289   -2.4750    0.0000 F   0  0  0  0  0  0  0  0  0  0  0  0
    0.7145   -3.7125    0.0000 C   0  0  0  0  0  0  0  0  0  0  0  0
    2.8579   -6.6000    0.0000 C   0  0  0  0  0  0  0  0  0  0  0  0
    3.5724   -7.0125    0.0000 N   0  0  0  0  0  0  0  0  0  0  0  0
  1  2  1  0  0  0  0
  2  3  2  0  0  0  0
  3  4  1  0  0  0  0
  4  5  2  0  0  0  0
  5  6  1  0  0  0  0
  6  7  2  0  0  0  0
  2  7  1  0  0  0  0
  7  8  1  0  0  0  0
  8  9  1  0  0  0  0
  9 10  2  0  0  0  0
 10 11  1  0  0  0  0
 11 12  2  0  0  0  0
 12 13  1  0  0  0  0
 13 14  1  0  0  0  0
 14 15  2  0  0  0  0
 14 16  1  0  0  0  0
 16 17  2  0  0  0  0
 17 18  1  0  0  0  0
 18 19  2  0  0  0  0
 19 20  1  0  0  0  0
 19 21  1  0  0  0  0
 21 22  2  0  0  0  0
 16 22  1  0  0  0  0
 12 23  1  0  0  0  0
 23 24  1  0  0  0  0
 23 25  2  0  0  0  0
  9 25  1  0  0  0  0
  4 26  1  0  0  0  0
 26 27  3  0  0  0  0
M  END
> <ID>
CPD_2325

$$$$
CPD_2330
  Mrv1822 09091914012D          

 20 21  0  0  0  0            999 V2000
    1.4289    0.0000    0.0000 C   0  0  0  0  0  0  0  0  0  0  0  0
    2.1434   -0.4125    0.0000 C   0  0  0  0  0  0  0  0  0  0  0  0
    2.8579    0.0000    0.0000 O   0  0  0  0  0  0  0  0  0  0  0  0
    2.1434   -1.2375    0.0000 C   0  0  0  0  0  0  0  0  0  0  0  0
    2.8579   -1.6500    0.0000 C   0  0  0  0  0  0  0  0  0  0  0  0
    2.8579   -2.4750    0.0000 C   0  0  0  0  0  0  0  0  0  0  0  0
    2.1434   -2.8875    0.0000 C   0  0  0  0  0  0  0  0  0  0  0  0
    2.1434   -3.7125    0.0000 N   0  0  0  0  0  0  0  0  0  0  0  0
    1.4289   -4.1250    0.0000 C   0  0  0  0  0  0  0  0  0  0  0  0
    1.4289   -4.9500    0.0000 C   0  0  0  0  0  0  0  0  0  0  0  0
    0.7145   -5.3625    0.0000 C   0  0  0  0  0  0  0  0  0  0  0  0
   -0.0000   -4.9500    0.0000 C   0  0  0  0  0  0  0  0  0  0  0  0
   -0.0000   -4.1250    0.0000 C   0  0  0  0  0  0  0  0  0  0  0  0
    0.7145   -3.7125    0.0000 C   0  0  0  0  0  0  0  0  0  0  0  0
    0.7145   -2.8875    0.0000 O   0  0  0  0  0  0  0  0  0  0  0  0
   -0.7145   -5.3625    0.0000 C   0  0  0  0  0  0  0  0  0  0  0  0
   -1.4289   -5.7750    0.0000 N   0  0  0  0  0  0  0  0  0  0  0  0
    1.4289   -2.4750    0.0000 C   0  0  0  0  0  0  0  0  0  0  0  0
    1.4289   -1.6500    0.0000 C   0  0  0  0  0  0  0  0  0  0  0  0
    0.7145   -1.2375    0.0000 C   0  0  0  0  0  0  0  0  0  0  0  0
  1  2  1  0  0  0  0
  2  3  2  0  0  0  0
  2  4  1  0  0  0  0
  4  5  2  0  0  0  0
  5  6  1  0  0  0  0
  6  7  2  0  0  0  0
  7  8  1  0  0  0  0
  8  9  1  0  0  0  0
  9 10  2  0  0  0  0
 10 11  1  0  0  0  0
 11 12  2  0  0  0  0
 12 13  1  0  0  0  0
 13 14  2  0  0  0  0
  9 14  1  0  0  0  0
 14 15  1  0  0  0  0
 12 16  1  0  0  0  0
 16 17  3  0  0  0  0
  7 18  1  0  0  0  0
 18 19  2  0  0  0  0
  4 19  1  0  0  0  0
 19 20  1  0  0  0  0
M  END
> <ID>
CPD_2330

$$$$
CPD_2335
  Mrv1822 09091914012D          

 26 28  0  0  0  0            999 V2000
    1.4289   -1.6500    0.0000 O   0  0  0  0  0  0  0  0  0  0  0  0
    1.4289   -2.4750    0.0000 C   0  0  0  0  0  0  0  0  0  0  0  0
    0.7145   -2.8875    0.0000 C   0  0  0  0  0  0  0  0  0  0  0  0
    0.7145   -3.7125    0.0000 C   0  0  0  0  0  0  0  0  0  0  0  0
    1.4289   -4.1250    0.0000 C   0  0  0  0  0  0  0  0  0  0  0  0
    2.1434   -3.7125    0.0000 C   0  0  0  0  0  0  0  0  0  0  0  0
    2.1434   -2.8875    0.0000 C   0  0  0  0  0  0  0  0  0  0  0  0
    2.8579   -2.4750    0.0000 N   0  0  0  0  0  0  0  0  0  0  0  0
    3.5724   -2.8875    0.0000 C   0  0  0  0  0  0  0  0  0  0  0  0
    4.2868   -2.4750    0.0000 C   0  0  0  0  0  0  0  0  0  0  0  0
    5.0013   -2.8875    0.0000 C   0  0  0  0  0  0  0  0  0  0  0  0
    5.0013   -3.7125    0.0000 C   0  0  0  0  0  0  0  0  0  0  0  0
    4.2868   -4.1250    0.0000 C   0  0  0  0  0  0  0  0  0  0  0  0
    4.2868   -4.9500    0.0000 F   0  0  0  0  0  0  0  0  0  0  0  0
    3.5724   -3.7125    0.0000 C   0  0  0  0  0  0  0  0  0  0  0  0
    2.8579   -4.1250    0.0000 C   0  0  0  0  0  0  0  0  0  0  0  0
    2.8579   -4.9500    0.0000 N   0  0  0  0  0  0  0  0  0  0  0  0
    2.1434   -5.3625    0.0000 C   0  0  0  0  0  0  0  0  0  0  0  0
    2.1434   -6.1875    0.0000 C   0  0  0  0  0  0  0  0  0  0  0  0
    2.8579   -6.6000    0.0000 C   0  0  0  0  0  0  0  0  0  0  0  0
    2.8579   -7.4250    0.0000 C   0  0  0  0  0  0  0  0  0  0  0  0
    2.1434   -7.8375    0.0000 C   0  0  0  0  0  0  0  0  0  0  0  0
    1.4289   -7.4250    0.0000 C   0  0  0  0  0  0  0  0  0  0  0  0
    1.4289   -6.6000    0.0000 C   0  0  0  0  0  0  0  0  0  0  0  0
    0.0000   -4.1250    0.0000 C   0  0  0  0  0  0  0  0  0  0  0  0
   -0.7145   -4.5375    0.0000 N   0  0  0  0  0  0  0  0  0  0  0  0
  1  2  1  0  0  0  0
  2  3  2  0  0  0  0
  3  4  1  0  0  0  0
  4  5  2  0  0  0  0
  5  6  1  0  0  0  0
  6  7  2  0  0  0  0
  2  7  1  0  0  0  0
  7  8  1  0  0  0  0
  8  9  1  0  0  0  0
  9 10  2  0  0  0  0
 10 11  1  0  0  0  0
 11 12  2  0  0  0  0
 12 13  1  0  0  0  0
 13 14  1  0  0  0  0
 13 15  2  0  0  0  0
  9 15  1  0  0  0  0
 15 16  1  0  0  0  0
 16 17  1  0  0  0  0
 17 18  1  0  0  0  0
 18 19  1  0  0  0  0
 19 20  2  0  0  0  0
 20 21  1  0  0  0  0
 21 22  2  0  0  0  0
 22 23  1  0  0  0  0
 23 24  2  0  0  0  0
 19 24  1  0  0  0  0
  4 25  1  0  0  0  0
 25 26  3  0  0  0  0
M  END
> <ID>
CPD_2335

$$$$
CPD_2340
  Mrv1822 09091914012D          

 24 26  0  0  0  0            999 V2000
   -2.9944    0.7467    0.0000 C   0  0  0  0  0  0  0  0  0  0  0  0
   -2.2098    0.4918    0.0000 N   0  0  0  0  0  0  0  0  0  0  0  0
   -1.5967    1.0438    0.0000 C   0  0  0  0  0  0  0  0  0  0  0  0
   -2.0382   -0.3152    0.0000 C   0  0  0  0  0  0  0  0  0  0  0  0
   -1.2536   -0.5701    0.0000 N   0  0  0  0  0  0  0  0  0  0  0  0
   -1.0821   -1.3771    0.0000 C   0  0  0  0  0  0  0  0  0  0  0  0
   -1.6952   -1.9291    0.0000 N   0  0  0  0  0  0  0  0  0  0  0  0
   -2.4798   -1.6742    0.0000 C   0  0  0  0  0  0  0  0  0  0  0  0
   -2.6513   -0.8672    0.0000 C   0  0  0  0  0  0  0  0  0  0  0  0
   -3.4360   -0.6123    0.0000 F   0  0  0  0  0  0  0  0  0  0  0  0
   -0.2975   -1.6320    0.0000 N   0  0  0  0  0  0  0  0  0  0  0  0
   -0.0425   -2.4167    0.0000 C   0  0  0  0  0  0  0  0  0  0  0  0
    0.7825   -2.4167    0.0000 C   0  0  0  0  0  0  0  0  0  0  0  0
    1.0374   -1.6320    0.0000 C   0  0  0  0  0  0  0  0  0  0  0  0
    0.3700   -1.1471    0.0000 C   0  0  0  0  0  0  0  0  0  0  0  0
    0.7750   -0.4284    0.0000 C   0  0  0  0  0  0  0  0  0  0  0  0
    1.5999   -0.4197    0.0000 O   0  0  0  0  0  0  0  0  0  0  0  0
    0.8526    0.3930    0.0000 O   0  0  0  0  0  0  0  0  0  0  0  0
   -0.0350   -0.4284    0.0000 C   0  0  0  0  0  0  0  0  0  0  0  0
   -0.8600   -0.4197    0.0000 C   0  0  0  0  0  0  0  0  0  0  0  0
   -1.2650    0.2990    0.0000 C   0  0  0  0  0  0  0  0  0  0  0  0
   -0.8450    1.0091    0.0000 C   0  0  0  0  0  0  0  0  0  0  0  0
   -0.0201    1.0005    0.0000 C   0  0  0  0  0  0  0  0  0  0  0  0
    0.3849    0.2817    0.0000 C   0  0  0  0  0  0  0  0  0  0  0  0
  1  2  1  0  0  0  0
  2  3  1  0  0  0  0
  2  4  1  0  0  0  0
  4  5  2  0  0  0  0
  5  6  1  0  0  0  0
  6  7  2  0  0  0  0
  7  8  1  0  0  0  0
  8  9  2  0  0  0  0
  4  9  1  0  0  0  0
  9 10  1  0  0  0  0
  6 11  1  0  0  0  0
 11 12  1  0  0  0  0
 12 13  1  0  0  0  0
 13 14  1  0  0  0  0
 14 15  1  0  0  0  0
 11 15  1  0  0  0  0
 15 16  1  0  0  0  0
 16 17  1  0  0  0  0
 16 18  2  0  0  0  0
 15 19  1  0  0  0  0
 19 20  2  0  0  0  0
 20 21  1  0  0  0  0
 21 22  2  0  0  0  0
 22 23  1  0  0  0  0
 23 24  2  0  0  0  0
 19 24  1  0  0  0  0
M  END
> <ID>
CPD_2340

$$$$
CPD_2345
  Mrv1822 09091914012D          

 37 41  0  0  0  0            999 V2000
   -6.9175    2.0214    0.0000 C   0  0  0  0  0  0  0  0  0  0  0  0
   -6.3044    2.5734    0.0000 O   0  0  0  0  0  0  0  0  0  0  0  0
   -5.5198    2.3185    0.0000 C   0  0  0  0  0  0  0  0  0  0  0  0
   -4.9067    2.8705    0.0000 C   0  0  0  0  0  0  0  0  0  0  0  0
   -4.1221    2.6156    0.0000 C   0  0  0  0  0  0  0  0  0  0  0  0
   -3.9505    1.8086    0.0000 C   0  0  0  0  0  0  0  0  0  0  0  0
   -4.5636    1.2566    0.0000 C   0  0  0  0  0  0  0  0  0  0  0  0
   -4.3921    0.4496    0.0000 O   0  0  0  0  0  0  0  0  0  0  0  0
   -5.0052   -0.1024    0.0000 C   0  0  0  0  0  0  0  0  0  0  0  0
   -5.3483    1.5115    0.0000 C   0  0  0  0  0  0  0  0  0  0  0  0
   -3.1659    1.5537    0.0000 C   0  0  0  0  0  0  0  0  0  0  0  0
   -2.5528    2.1057    0.0000 N   0  0  0  0  0  0  0  0  0  0  0  0
   -1.7682    1.8508    0.0000 C   0  0  0  0  0  0  0  0  0  0  0  0
   -1.1551    2.4028    0.0000 N   0  0  0  0  0  0  0  0  0  0  0  0
   -1.5967    1.0438    0.0000 N   0  0  0  0  0  0  0  0  0  0  0  0
   -2.2098    0.4918    0.0000 C   0  0  0  0  0  0  0  0  0  0  0  0
   -2.9944    0.7467    0.0000 C   0  0  0  0  0  0  0  0  0  0  0  0
   -2.0382   -0.3152    0.0000 C   0  0  0  0  0  0  0  0  0  0  0  0
   -1.2536   -0.5701    0.0000 C   0  0  0  0  0  0  0  0  0  0  0  0
   -1.0821   -1.3771    0.0000 C   0  0  0  0  0  0  0  0  0  0  0  0
   -1.6952   -1.9291    0.0000 C   0  0  0  0  0  0  0  0  0  0  0  0
   -2.4798   -1.6742    0.0000 C   0  0  0  0  0  0  0  0  0  0  0  0
   -2.6513   -0.8672    0.0000 C   0  0  0  0  0  0  0  0  0  0  0  0
   -0.2975   -1.6320    0.0000 N   0  0  0  0  0  0  0  0  0  0  0  0
   -0.0425   -2.4167    0.0000 C   0  0  0  0  0  0  0  0  0  0  0  0
    0.7825   -2.4167    0.0000 C   0  0  0  0  0  0  0  0  0  0  0  0
    1.0374   -1.6320    0.0000 C   0  0  0  0  0  0  0  0  0  0  0  0
    0.3700   -1.1471    0.0000 C   0  0  0  0  0  0  0  0  0  0  0  0
    0.7750   -0.4284    0.0000 C   0  0  0  0  0  0  0  0  0  0  0  0
    1.5999   -0.4197    0.0000 O   0  0  0  0  0  0  0  0  0  0  0  0
    0.8526    0.3930    0.0000 O   0  0  0  0  0  0  0  0  0  0  0  0
   -0.0350   -0.4284    0.0000 C   0  0  0  0  0  0  0  0  0  0  0  0
   -0.8600   -0.4197    0.0000 C   0  0  0  0  0  0  0  0  0  0  0  0
   -1.2650    0.2990    0.0000 C   0  0  0  0  0  0  0  0  0  0  0  0
   -0.8450    1.0091    0.0000 C   0  0  0  0  0  0  0  0  0  0  0  0
   -0.0201    1.0005    0.0000 C   0  0  0  0  0  0  0  0  0  0  0  0
    0.3849    0.2817    0.0000 C   0  0  0  0  0  0  0  0  0  0  0  0
  1  2  1  0  0  0  0
  2  3  1  0  0  0  0
  3  4  2  0  0  0  0
  4  5  1  0  0  0  0
  5  6  2  0  0  0  0
  6  7  1  0  0  0  0
  7  8  1  0  0  0  0
  8  9  1  0  0  0  0
  7 10  2  0  0  0  0
  3 10  1  0  0  0  0
  6 11  1  0  0  0  0
 11 12  2  0  0  0  0
 12 13  1  0  0  0  0
 13 14  1  0  0  0  0
 13 15  2  0  0  0  0
 15 16  1  0  0  0  0
 16 17  2  0  0  0  0
 11 17  1  0  0  0  0
 16 18  1  0  0  0  0
 18 19  2  0  0  0  0
 19 20  1  0  0  0  0
 20 21  2  0  0  0  0
 21 22  1  0  0  0  0
 22 23  2  0  0  0  0
 18 23  1  0  0  0  0
 20 24  1  0  0  0  0
 24 25  1  0  0  0  0
 25 26  1  0  0  0  0
 26 27  1  0  0  0  0
 27 28  1  0  0  0  0
 24 28  1  0  0  0  0
 28 29  1  0  0  0  0
 29 30  1  0  0  0  0
 29 31  2  0  0  0  0
 28 32  1  0  0  0  0
 32 33  2  0  0  0  0
 33 34  1  0  0  0  0
 34 35  2  0  0  0  0
 35 36  1  0  0  0  0
 36 37  2  0  0  0  0
 32 37  1  0  0  0  0
M  END
> <ID>
CPD_2345

$$$$
CPD_2350
  Mrv1822 09091914012D          

 33 37  0  0  0  0            999 V2000
    6.1368    4.5375    0.0000 C   0  0  0  0  0  0  0  0  0  0  0  0
    6.1368    3.7125    0.0000 O   0  0  0  0  0  0  0  0  0  0  0  0
    5.4223    3.3000    0.0000 C   0  0  0  0  0  0  0  0  0  0  0  0
    5.4223    2.4750    0.0000 C   0  0  0  0  0  0  0  0  0  0  0  0
    4.7079    2.0625    0.0000 C   0  0  0  0  0  0  0  0  0  0  0  0
    3.9934    2.4750    0.0000 C   0  0  0  0  0  0  0  0  0  0  0  0
    3.2789    2.0625    0.0000 N   0  0  0  0  0  0  0  0  0  0  0  0
    3.2789    1.2375    0.0000 C   0  0  0  0  0  0  0  0  0  0  0  0
    3.9934    0.8250    0.0000 N   0  0  0  0  0  0  0  0  0  0  0  0
    3.9934    0.0000    0.0000 C   0  0  0  0  0  0  0  0  0  0  0  0
    3.2789   -0.4125    0.0000 N   0  0  0  0  0  0  0  0  0  0  0  0
    2.5645    0.0000    0.0000 C   0  0  0  0  0  0  0  0  0  0  0  0
    2.5645    0.8250    0.0000 C   0  0  0  0  0  0  0  0  0  0  0  0
    1.7798    1.0799    0.0000 C   0  0  0  0  0  0  0  0  0  0  0  0
    1.2949    0.4125    0.0000 N   0  0  0  0  0  0  0  0  0  0  0  0
    1.7798   -0.2549    0.0000 N   0  0  0  0  0  0  0  0  0  0  0  0
    1.5249   -1.0396    0.0000 C   0  0  0  0  0  0  0  0  0  0  0  0
    4.7079   -0.4125    0.0000 N   0  0  0  0  0  0  0  0  0  0  0  0
    5.4615   -0.0769    0.0000 C   0  0  0  0  0  0  0  0  0  0  0  0
    6.0136   -0.6900    0.0000 C   0  0  0  0  0  0  0  0  0  0  0  0
    5.6011   -1.4045    0.0000 C   0  0  0  0  0  0  0  0  0  0  0  0
    4.7941   -1.2330    0.0000 C   0  0  0  0  0  0  0  0  0  0  0  0
    3.9890   -1.4129    0.0000 C   0  0  0  0  0  0  0  0  0  0  0  0
    3.3267   -1.9048    0.0000 O   0  0  0  0  0  0  0  0  0  0  0  0
    3.4306   -0.8057    0.0000 O   0  0  0  0  0  0  0  0  0  0  0  0
    4.5310   -2.0149    0.0000 C   0  0  0  0  0  0  0  0  0  0  0  0
    5.0765   -2.6337    0.0000 C   0  0  0  0  0  0  0  0  0  0  0  0
    4.8134   -3.4156    0.0000 C   0  0  0  0  0  0  0  0  0  0  0  0
    4.0047   -3.5787    0.0000 C   0  0  0  0  0  0  0  0  0  0  0  0
    3.4591   -2.9599    0.0000 C   0  0  0  0  0  0  0  0  0  0  0  0
    3.7222   -2.1780    0.0000 C   0  0  0  0  0  0  0  0  0  0  0  0
    3.9934    3.3000    0.0000 C   0  0  0  0  0  0  0  0  0  0  0  0
    4.7079    3.7125    0.0000 C   0  0  0  0  0  0  0  0  0  0  0  0
  1  2  1  0  0  0  0
  2  3  1  0  0  0  0
  3  4  2  0  0  0  0
  4  5  1  0  0  0  0
  5  6  2  0  0  0  0
  6  7  1  0  0  0  0
  7  8  1  0  0  0  0
  8  9  2  0  0  0  0
  9 10  1  0  0  0  0
 10 11  2  0  0  0  0
 11 12  1  0  0  0  0
 12 13  2  0  0  0  0
  8 13  1  0  0  0  0
 13 14  1  0  0  0  0
 14 15  2  0  0  0  0
 15 16  1  0  0  0  0
 12 16  1  0  0  0  0
 16 17  1  0  0  0  0
 10 18  1  0  0  0  0
 18 19  1  0  0  0  0
 19 20  1  0  0  0  0
 20 21  1  0  0  0  0
 21 22  1  0  0  0  0
 18 22  1  0  0  0  0
 22 23  1  0  0  0  0
 23 24  1  0  0  0  0
 23 25  2  0  0  0  0
 22 26  1  0  0  0  0
 26 27  2  0  0  0  0
 27 28  1  0  0  0  0
 28 29  2  0  0  0  0
 29 30  1  0  0  0  0
 30 31  2  0  0  0  0
 26 31  1  0  0  0  0
  6 32  1  0  0  0  0
 32 33  2  0  0  0  0
  3 33  1  0  0  0  0
M  END
> <ID>
CPD_2350

$$$$
CPD_2355
  Mrv1822 09091914012D          

 28 31  0  0  0  0            999 V2000
   -5.0013    8.4161    0.0000 Cl  0  0  0  0  0  0  0  0  0  0  0  0
   -4.2868    8.0036    0.0000 C   0  0  0  0  0  0  0  0  0  0  0  0
   -3.5724    8.4161    0.0000 C   0  0  0  0  0  0  0  0  0  0  0  0
   -2.8579    8.0036    0.0000 C   0  0  0  0  0  0  0  0  0  0  0  0
   -2.1434    8.4161    0.0000 Cl  0  0  0  0  0  0  0  0  0  0  0  0
   -2.8579    7.1786    0.0000 C   0  0  0  0  0  0  0  0  0  0  0  0
   -3.5724    6.7661    0.0000 C   0  0  0  0  0  0  0  0  0  0  0  0
   -4.2868    7.1786    0.0000 C   0  0  0  0  0  0  0  0  0  0  0  0
   -2.1434    6.7661    0.0000 C   0  0  0  0  0  0  0  0  0  0  0  0
   -2.1434    5.9411    0.0000 O   0  0  0  0  0  0  0  0  0  0  0  0
   -1.4289    7.1786    0.0000 N   0  0  0  0  0  0  0  0  0  0  0  0
   -1.4289    8.0036    0.0000 C   0  0  0  0  0  0  0  0  0  0  0  0
   -0.7145    8.4161    0.0000 C   0  0  0  0  0  0  0  0  0  0  0  0
   -0.0000    8.0036    0.0000 C   0  0  0  0  0  0  0  0  0  0  0  0
   -0.0000    7.1786    0.0000 C   0  0  0  0  0  0  0  0  0  0  0  0
   -0.7145    6.7661    0.0000 C   0  0  0  0  0  0  0  0  0  0  0  0
    0.7145    6.7661    0.0000 N   0  0  0  0  0  0  0  0  0  0  0  0
    0.7145    5.9411    0.0000 C   0  0  0  0  0  0  0  0  0  0  0  0
    1.4289    5.5286    0.0000 C   0  0  0  0  0  0  0  0  0  0  0  0
    1.4289    4.7036    0.0000 C   0  0  0  0  0  0  0  0  0  0  0  0
    0.7145    4.2911    0.0000 C   0  0  0  0  0  0  0  0  0  0  0  0
    0.0000    4.7036    0.0000 C   0  0  0  0  0  0  0  0  0  0  0  0
   -0.0000    5.5286    0.0000 C   0  0  0  0  0  0  0  0  0  0  0  0
    0.7145    3.4661    0.0000 C   0  0  0  0  0  0  0  0  0  0  0  0
    1.3819    2.9812    0.0000 C   0  0  0  0  0  0  0  0  0  0  0  0
    1.1270    2.1965    0.0000 N   0  0  0  0  0  0  0  0  0  0  0  0
    0.3020    2.1965    0.0000 C   0  0  0  0  0  0  0  0  0  0  0  0
    0.0470    2.9812    0.0000 N   0  0  0  0  0  0  0  0  0  0  0  0
  1  2  1  0  0  0  0
  2  3  2  0  0  0  0
  3  4  1  0  0  0  0
  4  5  1  0  0  0  0
  4  6  2  0  0  0  0
  6  7  1  0  0  0  0
  7  8  2  0  0  0  0
  2  8  1  0  0  0  0
  6  9  1  0  0  0  0
  9 10  2  0  0  0  0
  9 11  1  0  0  0  0
 11 12  1  0  0  0  0
 12 13  1  0  0  0  0
 13 14  1  0  0  0  0
 14 15  1  0  0  0  0
 15 16  1  0  0  0  0
 11 16  1  0  0  0  0
 15 17  1  0  0  0  0
 17 18  1  0  0  0  0
 18 19  2  0  0  0  0
 19 20  1  0  0  0  0
 20 21  2  0  0  0  0
 21 22  1  0  0  0  0
 22 23  2  0  0  0  0
 18 23  1  0  0  0  0
 21 24  1  0  0  0  0
 24 25  2  0  0  0  0
 25 26  1  0  0  0  0
 26 27  1  0  0  0  0
 27 28  2  0  0  0  0
 24 28  1  0  0  0  0
M  END
> <ID>
CPD_2355

$$$$
CPD_2360
  Mrv1822 09091914012D          

 19 21  0  0  0  0            999 V2000
    1.4289   -2.4750    0.0000 O   0  0  0  0  0  0  0  0  0  0  0  0
    1.4289   -1.6500    0.0000 C   0  0  0  0  0  0  0  0  0  0  0  0
    0.7145   -1.2375    0.0000 C   0  0  0  0  0  0  0  0  0  0  0  0
    0.7145   -0.4125    0.0000 C   0  0  0  0  0  0  0  0  0  0  0  0
    1.4289    0.0000    0.0000 N   0  0  0  0  0  0  0  0  0  0  0  0
    2.1434   -0.4125    0.0000 C   0  0  0  0  0  0  0  0  0  0  0  0
    2.8579    0.0000    0.0000 C   0  0  0  0  0  0  0  0  0  0  0  0
    2.8579    0.8250    0.0000 Br  0  0  0  0  0  0  0  0  0  0  0  0
    3.5724   -0.4125    0.0000 C   0  0  0  0  0  0  0  0  0  0  0  0
    3.5724   -1.2375    0.0000 C   0  0  0  0  0  0  0  0  0  0  0  0
    2.8579   -1.6500    0.0000 C   0  0  0  0  0  0  0  0  0  0  0  0
    2.8579   -2.4750    0.0000 N   0  0  0  0  0  0  0  0  0  0  0  0
    3.5724   -2.8875    0.0000 C   0  0  0  0  0  0  0  0  0  0  0  0
    4.3260   -2.5519    0.0000 N   0  0  0  0  0  0  0  0  0  0  0  0
    4.8781   -3.1650    0.0000 C   0  0  0  0  0  0  0  0  0  0  0  0
    4.4656   -3.8795    0.0000 C   0  0  0  0  0  0  0  0  0  0  0  0
    4.8011   -4.6332    0.0000 Br  0  0  0  0  0  0  0  0  0  0  0  0
    3.6586   -3.7080    0.0000 S   0  0  0  0  0  0  0  0  0  0  0  0
    2.1434   -1.2375    0.0000 C   0  0  0  0  0  0  0  0  0  0  0  0
  1  2  1  0  0  0  0
  2  3  2  0  0  0  0
  3  4  1  0  0  0  0
  4  5  2  0  0  0  0
  5  6  1  0  0  0  0
  6  7  2  0  0  0  0
  7  8  1  0  0  0  0
  7  9  1  0  0  0  0
  9 10  2  0  0  0  0
 10 11  1  0  0  0  0
 11 12  1  0  0  0  0
 12 13  1  0  0  0  0
 13 14  2  0  0  0  0
 14 15  1  0  0  0  0
 15 16  2  0  0  0  0
 16 17  1  0  0  0  0
 16 18  1  0  0  0  0
 13 18  1  0  0  0  0
 11 19  2  0  0  0  0
  2 19  1  0  0  0  0
  6 19  1  0  0  0  0
M  END
> <ID>
CPD_2360

$$$$
CPD_2365
  Mrv1822 09091914012D          

 25 27  0  0  0  0            999 V2000
    1.3222    7.2402    0.0000 C   0  0  0  0  0  0  0  0  0  0  0  0
    2.0367    6.8277    0.0000 C   0  0  0  0  0  0  0  0  0  0  0  0
    2.0367    6.0027    0.0000 O   0  0  0  0  0  0  0  0  0  0  0  0
    2.7512    5.5902    0.0000 C   0  0  0  0  0  0  0  0  0  0  0  0
    3.4656    6.0027    0.0000 O   0  0  0  0  0  0  0  0  0  0  0  0
    2.7512    4.7652    0.0000 C   0  0  0  0  0  0  0  0  0  0  0  0
    3.4656    4.3527    0.0000 N   0  0  0  0  0  0  0  0  0  0  0  0
    3.4656    3.5277    0.0000 C   0  0  0  0  0  0  0  0  0  0  0  0
    2.7512    3.1152    0.0000 C   0  0  0  0  0  0  0  0  0  0  0  0
    2.0367    3.5277    0.0000 C   0  0  0  0  0  0  0  0  0  0  0  0
    2.0367    4.3527    0.0000 C   0  0  0  0  0  0  0  0  0  0  0  0
    4.1801    3.1152    0.0000 C   0  0  0  0  0  0  0  0  0  0  0  0
    4.8946    3.5277    0.0000 C   0  0  0  0  0  0  0  0  0  0  0  0
    5.6091    3.1152    0.0000 C   0  0  0  0  0  0  0  0  0  0  0  0
    6.3235    3.5277    0.0000 F   0  0  0  0  0  0  0  0  0  0  0  0
    5.6091    2.2902    0.0000 C   0  0  0  0  0  0  0  0  0  0  0  0
    4.8946    1.8777    0.0000 C   0  0  0  0  0  0  0  0  0  0  0  0
    4.1801    2.2902    0.0000 C   0  0  0  0  0  0  0  0  0  0  0  0
    3.4656    1.8777    0.0000 N   0  0  0  0  0  0  0  0  0  0  0  0
    3.4656    1.0527    0.0000 C   0  0  0  0  0  0  0  0  0  0  0  0
    4.1331    0.5678    0.0000 N   0  0  0  0  0  0  0  0  0  0  0  0
    3.8781   -0.2169    0.0000 C   0  0  0  0  0  0  0  0  0  0  0  0
    3.0531   -0.2169    0.0000 C   0  0  0  0  0  0  0  0  0  0  0  0
    2.5682   -0.8843    0.0000 Br  0  0  0  0  0  0  0  0  0  0  0  0
    2.7982    0.5678    0.0000 S   0  0  0  0  0  0  0  0  0  0  0  0
  1  2  1  0  0  0  0
  2  3  1  0  0  0  0
  3  4  1  0  0  0  0
  4  5  2  0  0  0  0
  4  6  1  0  0  0  0
  6  7  2  0  0  0  0
  7  8  1  0  0  0  0
  8  9  2  0  0  0  0
  9 10  1  0  0  0  0
 10 11  2  0  0  0  0
  6 11  1  0  0  0  0
  8 12  1  0  0  0  0
 12 13  2  0  0  0  0
 13 14  1  0  0  0  0
 14 15  1  0  0  0  0
 14 16  2  0  0  0  0
 16 17  1  0  0  0  0
 17 18  2  0  0  0  0
 12 18  1  0  0  0  0
 18 19  1  0  0  0  0
 19 20  1  0  0  0  0
 20 21  2  0  0  0  0
 21 22  1  0  0  0  0
 22 23  2  0  0  0  0
 23 24  1  0  0  0  0
 23 25  1  0  0  0  0
 20 25  1  0  0  0  0
M  END
> <ID>
CPD_2365

$$$$
CPD_2370
  Mrv1822 09091914012D          

 25 26  0  0  0  0            999 V2000
    2.9646    8.8902    0.0000 C   0  0  0  0  0  0  0  0  0  0  0  0
    2.9646    8.0652    0.0000 C   0  0  0  0  0  0  0  0  0  0  0  0
    2.1396    8.0652    0.0000 C   0  0  0  0  0  0  0  0  0  0  0  0
    3.7896    8.0652    0.0000 C   0  0  0  0  0  0  0  0  0  0  0  0
    2.9646    7.2402    0.0000 O   0  0  0  0  0  0  0  0  0  0  0  0
    2.2501    6.8277    0.0000 C   0  0  0  0  0  0  0  0  0  0  0  0
    1.5356    7.2402    0.0000 O   0  0  0  0  0  0  0  0  0  0  0  0
    2.2501    6.0027    0.0000 N   0  0  0  0  0  0  0  0  0  0  0  0
    1.5356    5.5902    0.0000 C   0  0  0  0  0  0  0  0  0  0  0  0
    1.5356    4.7652    0.0000 C   0  0  0  0  0  0  0  0  0  0  0  0
    0.8212    4.3527    0.0000 C   0  0  0  0  0  0  0  0  0  0  0  0
    0.1067    4.7652    0.0000 C   0  0  0  0  0  0  0  0  0  0  0  0
   -0.6078    4.3527    0.0000 N   0  0  0  0  0  0  0  0  0  0  0  0
   -0.6078    3.5277    0.0000 C   0  0  0  0  0  0  0  0  0  0  0  0
    0.0597    3.0428    0.0000 N   0  0  0  0  0  0  0  0  0  0  0  0
   -0.1953    2.2581    0.0000 C   0  0  0  0  0  0  0  0  0  0  0  0
   -1.0203    2.2581    0.0000 C   0  0  0  0  0  0  0  0  0  0  0  0
   -1.5052    1.5907    0.0000 Br  0  0  0  0  0  0  0  0  0  0  0  0
   -1.2752    3.0428    0.0000 S   0  0  0  0  0  0  0  0  0  0  0  0
    0.1067    5.5902    0.0000 C   0  0  0  0  0  0  0  0  0  0  0  0
    0.8212    6.0027    0.0000 C   0  0  0  0  0  0  0  0  0  0  0  0
    2.2501    4.3527    0.0000 C   0  0  0  0  0  0  0  0  0  0  0  0
    2.9646    3.9402    0.0000 F   0  0  0  0  0  0  0  0  0  0  0  0
    1.8376    3.6382    0.0000 F   0  0  0  0  0  0  0  0  0  0  0  0
    2.6626    5.0672    0.0000 F   0  0  0  0  0  0  0  0  0  0  0  0
  1  2  1  0  0  0  0
  2  3  1  0  0  0  0
  2  4  1  0  0  0  0
  2  5  1  0  0  0  0
  5  6  1  0  0  0  0
  6  7  2  0  0  0  0
  6  8  1  0  0  0  0
  8  9  1  0  0  0  0
  9 10  2  0  0  0  0
 10 11  1  0  0  0  0
 11 12  2  0  0  0  0
 12 13  1  0  0  0  0
 13 14  1  0  0  0  0
 14 15  2  0  0  0  0
 15 16  1  0  0  0  0
 16 17  2  0  0  0  0
 17 18  1  0  0  0  0
 17 19  1  0  0  0  0
 14 19  1  0  0  0  0
 12 20  1  0  0  0  0
 20 21  2  0  0  0  0
  9 21  1  0  0  0  0
 10 22  1  0  0  0  0
 22 23  1  0  0  0  0
 22 24  1  0  0  0  0
 22 25  1  0  0  0  0
M  END
> <ID>
CPD_2370

$$$$
CPD_2375
  Mrv1822 09091914012D          

 23 25  0  0  0  0            999 V2000
   -2.8579   -0.0000    0.0000 C   0  0  0  0  0  0  0  0  0  0  0  0
   -2.1434   -0.4125    0.0000 O   0  0  0  0  0  0  0  0  0  0  0  0
   -2.1434   -1.2375    0.0000 C   0  0  0  0  0  0  0  0  0  0  0  0
   -2.8579   -1.6500    0.0000 C   0  0  0  0  0  0  0  0  0  0  0  0
   -3.5724   -1.2375    0.0000 N   0  0  0  0  0  0  0  0  0  0  0  0
   -4.2868   -1.6500    0.0000 C   0  0  0  0  0  0  0  0  0  0  0  0
   -4.2868   -2.4750    0.0000 C   0  0  0  0  0  0  0  0  0  0  0  0
   -5.0013   -2.8875    0.0000 C   0  0  0  0  0  0  0  0  0  0  0  0
   -5.7158   -2.4750    0.0000 C   0  0  0  0  0  0  0  0  0  0  0  0
   -5.7158   -1.6500    0.0000 C   0  0  0  0  0  0  0  0  0  0  0  0
   -5.0013   -1.2375    0.0000 C   0  0  0  0  0  0  0  0  0  0  0  0
   -5.0013   -0.4125    0.0000 O   0  0  0  0  0  0  0  0  0  0  0  0
   -5.0013   -3.7125    0.0000 C   0  0  0  0  0  0  0  0  0  0  0  0
   -4.2868   -4.1250    0.0000 C   0  0  0  0  0  0  0  0  0  0  0  0
   -4.2868   -4.9500    0.0000 C   0  0  0  0  0  0  0  0  0  0  0  0
   -5.0013   -5.3625    0.0000 C   0  0  0  0  0  0  0  0  0  0  0  0
   -5.7158   -4.9500    0.0000 C   0  0  0  0  0  0  0  0  0  0  0  0
   -5.7158   -4.1250    0.0000 C   0  0  0  0  0  0  0  0  0  0  0  0
   -2.8579   -2.4750    0.0000 C   0  0  0  0  0  0  0  0  0  0  0  0
   -3.5724   -2.8875    0.0000 Cl  0  0  0  0  0  0  0  0  0  0  0  0
   -2.1434   -2.8875    0.0000 C   0  0  0  0  0  0  0  0  0  0  0  0
   -1.4289   -2.4750    0.0000 C   0  0  0  0  0  0  0  0  0  0  0  0
   -1.4289   -1.6500    0.0000 C   0  0  0  0  0  0  0  0  0  0  0  0
  1  2  1  0  0  0  0
  2  3  1  0  0  0  0
  3  4  2  0  0  0  0
  4  5  1  0  0  0  0
  5  6  1  0  0  0  0
  6  7  2  0  0  0  0
  7  8  1  0  0  0  0
  8  9  2  0  0  0  0
  9 10  1  0  0  0  0
 10 11  2  0  0  0  0
  6 11  1  0  0  0  0
 11 12  1  0  0  0  0
  8 13  1  0  0  0  0
 13 14  2  0  0  0  0
 14 15  1  0  0  0  0
 15 16  2  0  0  0  0
 16 17  1  0  0  0  0
 17 18  2  0  0  0  0
 13 18  1  0  0  0  0
  4 19  1  0  0  0  0
 19 20  1  0  0  0  0
 19 21  2  0  0  0  0
 21 22  1  0  0  0  0
 22 23  2  0  0  0  0
  3 23  1  0  0  0  0
M  END
> <ID>
CPD_2375

$$$$
CPD_2380
  Mrv1822 09091914012D          

 33 36  0  0  0  0            999 V2000
   -4.1274    3.5046    0.0000 C   0  0  0  0  0  0  0  0  0  0  0  0
   -3.4129    3.0921    0.0000 O   0  0  0  0  0  0  0  0  0  0  0  0
   -3.4129    2.2671    0.0000 C   0  0  0  0  0  0  0  0  0  0  0  0
   -2.6984    1.8546    0.0000 C   0  0  0  0  0  0  0  0  0  0  0  0
   -1.9840    2.2671    0.0000 N   0  0  0  0  0  0  0  0  0  0  0  0
   -1.2695    1.8546    0.0000 C   0  0  0  0  0  0  0  0  0  0  0  0
   -0.5550    2.2671    0.0000 C   0  0  0  0  0  0  0  0  0  0  0  0
    0.1595    1.8546    0.0000 C   0  0  0  0  0  0  0  0  0  0  0  0
    0.1595    1.0296    0.0000 C   0  0  0  0  0  0  0  0  0  0  0  0
    0.8739    0.6171    0.0000 C   0  0  0  0  0  0  0  0  0  0  0  0
    0.8739   -0.2079    0.0000 C   0  0  0  0  0  0  0  0  0  0  0  0
    1.5884   -0.6204    0.0000 C   0  0  0  0  0  0  0  0  0  0  0  0
    2.3029   -1.0329    0.0000 C   0  0  0  0  0  0  0  0  0  0  0  0
    2.3029   -1.8579    0.0000 N   0  0  0  0  0  0  0  0  0  0  0  0
    2.9703   -2.3429    0.0000 C   0  0  0  0  0  0  0  0  0  0  0  0
    2.7154   -3.1275    0.0000 N   0  0  0  0  0  0  0  0  0  0  0  0
    1.8904   -3.1275    0.0000 C   0  0  0  0  0  0  0  0  0  0  0  0
    1.6354   -2.3429    0.0000 N   0  0  0  0  0  0  0  0  0  0  0  0
    1.1759   -1.3349    0.0000 C   0  0  0  0  0  0  0  0  0  0  0  0
    0.7634   -2.0494    0.0000 N   0  0  0  0  0  0  0  0  0  0  0  0
    2.0009    0.0940    0.0000 C   0  0  0  0  0  0  0  0  0  0  0  0
    1.5884    0.8085    0.0000 C   0  0  0  0  0  0  0  0  0  0  0  0
    2.0009    1.5230    0.0000 C   0  0  0  0  0  0  0  0  0  0  0  0
    2.8259    1.5230    0.0000 C   0  0  0  0  0  0  0  0  0  0  0  0
    3.2384    0.8085    0.0000 C   0  0  0  0  0  0  0  0  0  0  0  0
    2.8259    0.0940    0.0000 C   0  0  0  0  0  0  0  0  0  0  0  0
   -0.5550    0.6171    0.0000 C   0  0  0  0  0  0  0  0  0  0  0  0
   -1.2695    1.0296    0.0000 C   0  0  0  0  0  0  0  0  0  0  0  0
   -2.6984    1.0296    0.0000 C   0  0  0  0  0  0  0  0  0  0  0  0
   -1.9840    0.6171    0.0000 Cl  0  0  0  0  0  0  0  0  0  0  0  0
   -3.4129    0.6171    0.0000 C   0  0  0  0  0  0  0  0  0  0  0  0
   -4.1274    1.0296    0.0000 C   0  0  0  0  0  0  0  0  0  0  0  0
   -4.1274    1.8546    0.0000 C   0  0  0  0  0  0  0  0  0  0  0  0
  1  2  1  0  0  0  0
  2  3  1  0  0  0  0
  3  4  2  0  0  0  0
  4  5  1  0  0  0  0
  5  6  1  0  0  0  0
  6  7  2  0  0  0  0
  7  8  1  0  0  0  0
  8  9  2  0  0  0  0
  9 10  1  0  0  0  0
 10 11  1  0  0  0  0
 11 12  1  0  0  0  0
 12 13  1  0  0  0  0
 13 14  1  0  0  0  0
 14 15  1  0  0  0  0
 15 16  2  0  0  0  0
 16 17  1  0  0  0  0
 17 18  2  0  0  0  0
 14 18  1  0  0  0  0
 12 19  1  0  0  0  0
 19 20  3  0  0  0  0
 12 21  1  0  0  0  0
 21 22  2  0  0  0  0
 22 23  1  0  0  0  0
 23 24  2  0  0  0  0
 24 25  1  0  0  0  0
 25 26  2  0  0  0  0
 21 26  1  0  0  0  0
  9 27  1  0  0  0  0
 27 28  2  0  0  0  0
  6 28  1  0  0  0  0
  4 29  1  0  0  0  0
 29 30  1  0  0  0  0
 29 31  2  0  0  0  0
 31 32  1  0  0  0  0
 32 33  2  0  0  0  0
  3 33  1  0  0  0  0
M  END
> <ID>
CPD_2380

$$$$
CPD_2385
  Mrv1822 09091914012D          

 25 27  0  0  0  0            999 V2000
    2.7845    0.6979    0.0000 C   0  0  0  0  0  0  0  0  0  0  0  0
    2.0701    1.1104    0.0000 C   0  0  0  0  0  0  0  0  0  0  0  0
    1.3556    0.6979    0.0000 C   0  0  0  0  0  0  0  0  0  0  0  0
    0.6411    1.1104    0.0000 N   0  0  0  0  0  0  0  0  0  0  0  0
   -0.1435    0.8555    0.0000 N   0  0  0  0  0  0  0  0  0  0  0  0
   -0.6284    1.5229    0.0000 C   0  0  0  0  0  0  0  0  0  0  0  0
   -1.4534    1.5229    0.0000 N   0  0  0  0  0  0  0  0  0  0  0  0
   -1.8659    2.2374    0.0000 C   0  0  0  0  0  0  0  0  0  0  0  0
   -2.6909    2.2374    0.0000 C   0  0  0  0  0  0  0  0  0  0  0  0
   -3.1034    1.5229    0.0000 Cl  0  0  0  0  0  0  0  0  0  0  0  0
   -3.1034    2.9519    0.0000 C   0  0  0  0  0  0  0  0  0  0  0  0
   -3.9284    2.9519    0.0000 C   0  0  0  0  0  0  0  0  0  0  0  0
   -4.7534    2.9519    0.0000 N   0  0  0  0  0  0  0  0  0  0  0  0
   -2.6909    3.6664    0.0000 C   0  0  0  0  0  0  0  0  0  0  0  0
   -1.8659    3.6664    0.0000 C   0  0  0  0  0  0  0  0  0  0  0  0
   -1.4534    2.9519    0.0000 N   0  0  0  0  0  0  0  0  0  0  0  0
   -3.1034    4.3808    0.0000 C   0  0  0  0  0  0  0  0  0  0  0  0
   -3.5159    5.0953    0.0000 F   0  0  0  0  0  0  0  0  0  0  0  0
   -2.3890    4.7933    0.0000 F   0  0  0  0  0  0  0  0  0  0  0  0
   -3.8179    3.9683    0.0000 F   0  0  0  0  0  0  0  0  0  0  0  0
   -0.1435    2.1904    0.0000 N   0  0  0  0  0  0  0  0  0  0  0  0
    0.6411    1.9354    0.0000 C   0  0  0  0  0  0  0  0  0  0  0  0
    1.3556    2.3479    0.0000 C   0  0  0  0  0  0  0  0  0  0  0  0
    1.3556    3.1729    0.0000 Cl  0  0  0  0  0  0  0  0  0  0  0  0
    2.0701    1.9354    0.0000 C   0  0  0  0  0  0  0  0  0  0  0  0
  1  2  1  0  0  0  0
  2  3  2  0  0  0  0
  3  4  1  0  0  0  0
  4  5  1  0  0  0  0
  5  6  2  0  0  0  0
  6  7  1  0  0  0  0
  7  8  1  0  0  0  0
  8  9  2  0  0  0  0
  9 10  1  0  0  0  0
  9 11  1  0  0  0  0
 11 12  1  0  0  0  0
 12 13  3  0  0  0  0
 11 14  2  0  0  0  0
 14 15  1  0  0  0  0
 15 16  2  0  0  0  0
  8 16  1  0  0  0  0
 14 17  1  0  0  0  0
 17 18  1  0  0  0  0
 17 19  1  0  0  0  0
 17 20  1  0  0  0  0
  6 21  1  0  0  0  0
 21 22  2  0  0  0  0
  4 22  1  0  0  0  0
 22 23  1  0  0  0  0
 23 24  1  0  0  0  0
 23 25  2  0  0  0  0
  2 25  1  0  0  0  0
M  END
> <ID>
CPD_2385

$$$$
CPD_2390
  Mrv1822 09091914012D          

 24 26  0  0  0  0            999 V2000
   -0.5837   -4.2703    0.0000 C   0  0  0  0  0  0  0  0  0  0  0  0
   -0.1712   -3.5558    0.0000 N   0  0  0  0  0  0  0  0  0  0  0  0
   -0.5837   -2.8414    0.0000 C   0  0  0  0  0  0  0  0  0  0  0  0
   -1.4087   -2.8414    0.0000 C   0  0  0  0  0  0  0  0  0  0  0  0
   -1.8212   -2.1269    0.0000 C   0  0  0  0  0  0  0  0  0  0  0  0
   -1.4087   -1.4124    0.0000 C   0  0  0  0  0  0  0  0  0  0  0  0
   -0.5837   -1.4124    0.0000 C   0  0  0  0  0  0  0  0  0  0  0  0
   -0.1712   -0.6979    0.0000 N   0  0  0  0  0  0  0  0  0  0  0  0
    0.6538   -0.6979    0.0000 C   0  0  0  0  0  0  0  0  0  0  0  0
    1.1387   -0.0305    0.0000 N   0  0  0  0  0  0  0  0  0  0  0  0
    1.9233   -0.2854    0.0000 N   0  0  0  0  0  0  0  0  0  0  0  0
    2.6378    0.1271    0.0000 C   0  0  0  0  0  0  0  0  0  0  0  0
    3.3523   -0.2854    0.0000 C   0  0  0  0  0  0  0  0  0  0  0  0
    4.0668    0.1271    0.0000 C   0  0  0  0  0  0  0  0  0  0  0  0
    3.3523   -1.1104    0.0000 C   0  0  0  0  0  0  0  0  0  0  0  0
    2.6378   -1.5229    0.0000 C   0  0  0  0  0  0  0  0  0  0  0  0
    2.6378   -2.3479    0.0000 Cl  0  0  0  0  0  0  0  0  0  0  0  0
    1.9233   -1.1104    0.0000 C   0  0  0  0  0  0  0  0  0  0  0  0
    1.1387   -1.3654    0.0000 N   0  0  0  0  0  0  0  0  0  0  0  0
   -0.1712   -2.1269    0.0000 N   0  0  0  0  0  0  0  0  0  0  0  0
   -2.6462   -2.1269    0.0000 C   0  0  0  0  0  0  0  0  0  0  0  0
   -3.4712   -2.1269    0.0000 F   0  0  0  0  0  0  0  0  0  0  0  0
   -2.6462   -1.3019    0.0000 F   0  0  0  0  0  0  0  0  0  0  0  0
   -2.6462   -2.9519    0.0000 F   0  0  0  0  0  0  0  0  0  0  0  0
  1  2  1  0  0  0  0
  2  3  1  0  0  0  0
  3  4  2  0  0  0  0
  4  5  1  0  0  0  0
  5  6  2  0  0  0  0
  6  7  1  0  0  0  0
  7  8  1  0  0  0  0
  8  9  1  0  0  0  0
  9 10  2  0  0  0  0
 10 11  1  0  0  0  0
 11 12  1  0  0  0  0
 12 13  2  0  0  0  0
 13 14  1  0  0  0  0
 13 15  1  0  0  0  0
 15 16  2  0  0  0  0
 16 17  1  0  0  0  0
 16 18  1  0  0  0  0
 11 18  1  0  0  0  0
 18 19  2  0  0  0  0
  9 19  1  0  0  0  0
  7 20  2  0  0  0  0
  3 20  1  0  0  0  0
  5 21  1  0  0  0  0
 21 22  1  0  0  0  0
 21 23  1  0  0  0  0
 21 24  1  0  0  0  0
M  END
> <ID>
CPD_2390

$$$$
CPD_2395
  Mrv1822 09091914012D          

 20 22  0  0  0  0            999 V2000
   -0.5837   -4.2703    0.0000 C   0  0  0  0  0  0  0  0  0  0  0  0
   -0.1712   -3.5558    0.0000 N   0  0  0  0  0  0  0  0  0  0  0  0
   -0.5837   -2.8414    0.0000 C   0  0  0  0  0  0  0  0  0  0  0  0
   -1.4087   -2.8414    0.0000 C   0  0  0  0  0  0  0  0  0  0  0  0
   -1.8212   -2.1269    0.0000 C   0  0  0  0  0  0  0  0  0  0  0  0
   -1.4087   -1.4124    0.0000 C   0  0  0  0  0  0  0  0  0  0  0  0
   -0.5837   -1.4124    0.0000 C   0  0  0  0  0  0  0  0  0  0  0  0
   -0.1712   -0.6979    0.0000 N   0  0  0  0  0  0  0  0  0  0  0  0
    0.6538   -0.6979    0.0000 C   0  0  0  0  0  0  0  0  0  0  0  0
    1.1387   -0.0305    0.0000 N   0  0  0  0  0  0  0  0  0  0  0  0
    1.9233   -0.2854    0.0000 N   0  0  0  0  0  0  0  0  0  0  0  0
    2.6378    0.1271    0.0000 C   0  0  0  0  0  0  0  0  0  0  0  0
    3.3523   -0.2854    0.0000 C   0  0  0  0  0  0  0  0  0  0  0  0
    4.0668    0.1271    0.0000 C   0  0  0  0  0  0  0  0  0  0  0  0
    3.3523   -1.1104    0.0000 C   0  0  0  0  0  0  0  0  0  0  0  0
    2.6378   -1.5229    0.0000 C   0  0  0  0  0  0  0  0  0  0  0  0
    2.6378   -2.3479    0.0000 Cl  0  0  0  0  0  0  0  0  0  0  0  0
    1.9233   -1.1104    0.0000 C   0  0  0  0  0  0  0  0  0  0  0  0
    1.1387   -1.3654    0.0000 N   0  0  0  0  0  0  0  0  0  0  0  0
   -0.1712   -2.1269    0.0000 N   0  0  0  0  0  0  0  0  0  0  0  0
  1  2  1  0  0  0  0
  2  3  1  0  0  0  0
  3  4  2  0  0  0  0
  4  5  1  0  0  0  0
  5  6  2  0  0  0  0
  6  7  1  0  0  0  0
  7  8  1  0  0  0  0
  8  9  1  0  0  0  0
  9 10  2  0  0  0  0
 10 11  1  0  0  0  0
 11 12  1  0  0  0  0
 12 13  2  0  0  0  0
 13 14  1  0  0  0  0
 13 15  1  0  0  0  0
 15 16  2  0  0  0  0
 16 17  1  0  0  0  0
 16 18  1  0  0  0  0
 11 18  1  0  0  0  0
 18 19  2  0  0  0  0
  9 19  1  0  0  0  0
  7 20  2  0  0  0  0
  3 20  1  0  0  0  0
M  END
> <ID>
CPD_2395

$$$$
CPD_2400
  Mrv1822 09091914012D          

 20 22  0  0  0  0            999 V2000
    2.7845    0.6979    0.0000 C   0  0  0  0  0  0  0  0  0  0  0  0
    2.0701    1.1104    0.0000 C   0  0  0  0  0  0  0  0  0  0  0  0
    1.3556    0.6979    0.0000 C   0  0  0  0  0  0  0  0  0  0  0  0
    0.6411    1.1104    0.0000 N   0  0  0  0  0  0  0  0  0  0  0  0
   -0.1435    0.8555    0.0000 N   0  0  0  0  0  0  0  0  0  0  0  0
   -0.6284    1.5229    0.0000 C   0  0  0  0  0  0  0  0  0  0  0  0
   -1.4534    1.5229    0.0000 N   0  0  0  0  0  0  0  0  0  0  0  0
   -1.8659    2.2374    0.0000 C   0  0  0  0  0  0  0  0  0  0  0  0
   -2.6909    2.2374    0.0000 C   0  0  0  0  0  0  0  0  0  0  0  0
   -3.1034    1.5229    0.0000 F   0  0  0  0  0  0  0  0  0  0  0  0
   -3.1034    2.9519    0.0000 C   0  0  0  0  0  0  0  0  0  0  0  0
   -2.6909    3.6664    0.0000 C   0  0  0  0  0  0  0  0  0  0  0  0
   -3.1034    4.3808    0.0000 Cl  0  0  0  0  0  0  0  0  0  0  0  0
   -1.8659    3.6664    0.0000 C   0  0  0  0  0  0  0  0  0  0  0  0
   -1.4534    2.9519    0.0000 C   0  0  0  0  0  0  0  0  0  0  0  0
   -0.1435    2.1904    0.0000 N   0  0  0  0  0  0  0  0  0  0  0  0
    0.6411    1.9354    0.0000 C   0  0  0  0  0  0  0  0  0  0  0  0
    1.3556    2.3479    0.0000 C   0  0  0  0  0  0  0  0  0  0  0  0
    1.3556    3.1729    0.0000 Cl  0  0  0  0  0  0  0  0  0  0  0  0
    2.0701    1.9354    0.0000 C   0  0  0  0  0  0  0  0  0  0  0  0
  1  2  1  0  0  0  0
  2  3  2  0  0  0  0
  3  4  1  0  0  0  0
  4  5  1  0  0  0  0
  5  6  2  0  0  0  0
  6  7  1  0  0  0  0
  7  8  1  0  0  0  0
  8  9  2  0  0  0  0
  9 10  1  0  0  0  0
  9 11  1  0  0  0  0
 11 12  2  0  0  0  0
 12 13  1  0  0  0  0
 12 14  1  0  0  0  0
 14 15  2  0  0  0  0
  8 15  1  0  0  0  0
  6 16  1  0  0  0  0
 16 17  2  0  0  0  0
  4 17  1  0  0  0  0
 17 18  1  0  0  0  0
 18 19  1  0  0  0  0
 18 20  2  0  0  0  0
  2 20  1  0  0  0  0
M  END
> <ID>
CPD_2400

$$$$
CPD_2405
  Mrv1822 09091914012D          

 33 36  0  0  0  0            999 V2000
   -2.9646    2.4134    0.0000 C   0  0  0  0  0  0  0  0  0  0  0  0
   -2.2501    2.0009    0.0000 O   0  0  0  0  0  0  0  0  0  0  0  0
   -1.5356    2.4134    0.0000 C   0  0  0  0  0  0  0  0  0  0  0  0
   -1.5356    3.2384    0.0000 O   0  0  0  0  0  0  0  0  0  0  0  0
   -0.8212    2.0009    0.0000 C   0  0  0  0  0  0  0  0  0  0  0  0
   -0.1067    2.4134    0.0000 C   0  0  0  0  0  0  0  0  0  0  0  0
    0.6078    2.0009    0.0000 C   0  0  0  0  0  0  0  0  0  0  0  0
    0.6078    1.1759    0.0000 C   0  0  0  0  0  0  0  0  0  0  0  0
    1.3222    0.7634    0.0000 N   0  0  0  0  0  0  0  0  0  0  0  0
    2.0367    1.1759    0.0000 C   0  0  0  0  0  0  0  0  0  0  0  0
    2.0367    2.0009    0.0000 C   0  0  0  0  0  0  0  0  0  0  0  0
    2.7512    2.4134    0.0000 C   0  0  0  0  0  0  0  0  0  0  0  0
    3.4656    2.0009    0.0000 C   0  0  0  0  0  0  0  0  0  0  0  0
    3.4656    1.1759    0.0000 C   0  0  0  0  0  0  0  0  0  0  0  0
    2.7512    0.7634    0.0000 C   0  0  0  0  0  0  0  0  0  0  0  0
    2.7512   -0.0616    0.0000 N   0  0  0  0  0  0  0  0  0  0  0  0
    3.4186   -0.5465    0.0000 C   0  0  0  0  0  0  0  0  0  0  0  0
    3.1637   -1.3312    0.0000 C   0  0  0  0  0  0  0  0  0  0  0  0
    2.3387   -1.3312    0.0000 C   0  0  0  0  0  0  0  0  0  0  0  0
    2.0837   -0.5465    0.0000 C   0  0  0  0  0  0  0  0  0  0  0  0
    1.2991   -0.2916    0.0000 O   0  0  0  0  0  0  0  0  0  0  0  0
    4.1801    2.4134    0.0000 N   0  0  0  0  0  0  0  0  0  0  0  0
    4.2664    3.2339    0.0000 C   0  0  0  0  0  0  0  0  0  0  0  0
    5.0733    3.4054    0.0000 C   0  0  0  0  0  0  0  0  0  0  0  0
    5.4858    2.6909    0.0000 C   0  0  0  0  0  0  0  0  0  0  0  0
    4.9338    2.0778    0.0000 C   0  0  0  0  0  0  0  0  0  0  0  0
    5.1053    1.2709    0.0000 O   0  0  0  0  0  0  0  0  0  0  0  0
   -0.1067    0.7634    0.0000 C   0  0  0  0  0  0  0  0  0  0  0  0
   -0.8212    1.1759    0.0000 C   0  0  0  0  0  0  0  0  0  0  0  0
   -0.1067   -0.0616    0.0000 S   0  0  0  0  0  0  0  0  0  0  0  0
   -0.1067   -0.8866    0.0000 C   0  0  0  0  0  0  0  0  0  0  0  0
   -0.9317   -0.0616    0.0000 O   0  0  0  0  0  0  0  0  0  0  0  0
    0.7183   -0.0616    0.0000 O   0  0  0  0  0  0  0  0  0  0  0  0
  1  2  1  0  0  0  0
  2  3  1  0  0  0  0
  3  4  2  0  0  0  0
  3  5  1  0  0  0  0
  5  6  2  0  0  0  0
  6  7  1  0  0  0  0
  7  8  2  0  0  0  0
  8  9  1  0  0  0  0
  9 10  1  0  0  0  0
 10 11  2  0  0  0  0
 11 12  1  0  0  0  0
 12 13  2  0  0  0  0
 13 14  1  0  0  0  0
 14 15  2  0  0  0  0
 10 15  1  0  0  0  0
 15 16  1  0  0  0  0
 16 17  1  0  0  0  0
 17 18  1  0  0  0  0
 18 19  1  0  0  0  0
 19 20  1  0  0  0  0
 16 20  1  0  0  0  0
 20 21  2  0  0  0  0
 13 22  1  0  0  0  0
 22 23  1  0  0  0  0
 23 24  1  0  0  0  0
 24 25  1  0  0  0  0
 25 26  1  0  0  0  0
 22 26  1  0  0  0  0
 26 27  2  0  0  0  0
  8 28  1  0  0  0  0
 28 29  2  0  0  0  0
  5 29  1  0  0  0  0
 28 30  1  0  0  0  0
 30 31  1  0  0  0  0
 30 32  2  0  0  0  0
 30 33  2  0  0  0  0
M  END
> <ID>
CPD_2405

$$$$
CPD_2410
  Mrv1822 09091914012D          

 33 35  0  0  0  0            999 V2000
   -0.1105   -3.7125    0.0000 C   0  0  0  0  0  0  0  0  0  0  0  0
    0.7145   -3.7125    0.0000 C   0  0  0  0  0  0  0  0  0  0  0  0
    1.5395   -3.7125    0.0000 C   0  0  0  0  0  0  0  0  0  0  0  0
    0.7145   -2.8875    0.0000 C   0  0  0  0  0  0  0  0  0  0  0  0
    0.7145   -2.0625    0.0000 N   0  0  0  0  0  0  0  0  0  0  0  0
    0.7145   -4.5375    0.0000 C   0  0  0  0  0  0  0  0  0  0  0  0
    1.4289   -4.9500    0.0000 C   0  0  0  0  0  0  0  0  0  0  0  0
    1.4289   -5.7750    0.0000 C   0  0  0  0  0  0  0  0  0  0  0  0
    2.1434   -6.1875    0.0000 N   0  0  0  0  0  0  0  0  0  0  0  0
    2.1434   -7.0125    0.0000 C   0  0  0  0  0  0  0  0  0  0  0  0
    2.8579   -7.4250    0.0000 C   0  0  0  0  0  0  0  0  0  0  0  0
    2.8579   -8.2500    0.0000 C   0  0  0  0  0  0  0  0  0  0  0  0
    2.1434   -8.6625    0.0000 C   0  0  0  0  0  0  0  0  0  0  0  0
    1.4289   -8.2500    0.0000 C   0  0  0  0  0  0  0  0  0  0  0  0
    1.4289   -7.4250    0.0000 C   0  0  0  0  0  0  0  0  0  0  0  0
    0.7145   -7.0125    0.0000 Cl  0  0  0  0  0  0  0  0  0  0  0  0
    3.5724   -7.0125    0.0000 N   0  0  0  0  0  0  0  0  0  0  0  0
    3.5724   -6.1875    0.0000 C   0  0  0  0  0  0  0  0  0  0  0  0
    4.2868   -5.7750    0.0000 C   0  0  0  0  0  0  0  0  0  0  0  0
    5.0013   -6.1875    0.0000 O   0  0  0  0  0  0  0  0  0  0  0  0
    4.2868   -4.9500    0.0000 O   0  0  0  0  0  0  0  0  0  0  0  0
    4.2868   -7.4250    0.0000 S   0  0  0  0  0  0  0  0  0  0  0  0
    3.8743   -8.1395    0.0000 O   0  0  0  0  0  0  0  0  0  0  0  0
    4.6993   -6.7105    0.0000 O   0  0  0  0  0  0  0  0  0  0  0  0
    5.0013   -7.8375    0.0000 C   0  0  0  0  0  0  0  0  0  0  0  0
    5.7158   -7.4250    0.0000 C   0  0  0  0  0  0  0  0  0  0  0  0
    6.4302   -7.8375    0.0000 C   0  0  0  0  0  0  0  0  0  0  0  0
    6.4302   -8.6625    0.0000 C   0  0  0  0  0  0  0  0  0  0  0  0
    5.7158   -9.0750    0.0000 C   0  0  0  0  0  0  0  0  0  0  0  0
    5.0013   -8.6625    0.0000 C   0  0  0  0  0  0  0  0  0  0  0  0
    0.7145   -6.1875    0.0000 C   0  0  0  0  0  0  0  0  0  0  0  0
    0.0000   -5.7750    0.0000 C   0  0  0  0  0  0  0  0  0  0  0  0
    0.0000   -4.9500    0.0000 C   0  0  0  0  0  0  0  0  0  0  0  0
  1  2  1  0  0  0  0
  2  3  1  0  0  0  0
  2  4  1  0  0  0  0
  4  5  3  0  0  0  0
  2  6  1  0  0  0  0
  6  7  2  0  0  0  0
  7  8  1  0  0  0  0
  8  9  1  0  0  0  0
  9 10  1  0  0  0  0
 10 11  2  0  0  0  0
 11 12  1  0  0  0  0
 12 13  2  0  0  0  0
 13 14  1  0  0  0  0
 14 15  2  0  0  0  0
 10 15  1  0  0  0  0
 15 16  1  0  0  0  0
 11 17  1  0  0  0  0
 17 18  1  0  0  0  0
 18 19  1  0  0  0  0
 19 20  1  0  0  0  0
 19 21  2  0  0  0  0
 17 22  1  0  0  0  0
 22 23  2  0  0  0  0
 22 24  2  0  0  0  0
 22 25  1  0  0  0  0
 25 26  2  0  0  0  0
 26 27  1  0  0  0  0
 27 28  2  0  0  0  0
 28 29  1  0  0  0  0
 29 30  2  0  0  0  0
 25 30  1  0  0  0  0
  8 31  2  0  0  0  0
 31 32  1  0  0  0  0
 32 33  2  0  0  0  0
  6 33  1  0  0  0  0
M  END
> <ID>
CPD_2410

$$$$
CPD_2415
  Mrv1822 09091914012D          

 26 28  0  0  0  0            999 V2000
    0.7145    2.0625    0.0000 C   0  0  0  0  0  0  0  0  0  0  0  0
    0.7145    1.2375    0.0000 O   0  0  0  0  0  0  0  0  0  0  0  0
    1.4289    0.8250    0.0000 C   0  0  0  0  0  0  0  0  0  0  0  0
    2.1434    1.2375    0.0000 O   0  0  0  0  0  0  0  0  0  0  0  0
    1.4289    0.0000    0.0000 C   0  0  0  0  0  0  0  0  0  0  0  0
    2.1434   -0.4125    0.0000 C   0  0  0  0  0  0  0  0  0  0  0  0
    2.8579    0.0000    0.0000 O   0  0  0  0  0  0  0  0  0  0  0  0
    3.5724   -0.4125    0.0000 C   0  0  0  0  0  0  0  0  0  0  0  0
    3.5724   -1.2375    0.0000 C   0  0  0  0  0  0  0  0  0  0  0  0
    2.8579   -1.6500    0.0000 O   0  0  0  0  0  0  0  0  0  0  0  0
    2.1434   -1.2375    0.0000 C   0  0  0  0  0  0  0  0  0  0  0  0
    1.4289   -1.6500    0.0000 N   0  0  0  0  0  0  0  0  0  0  0  0
    0.7145   -1.2375    0.0000 C   0  0  0  0  0  0  0  0  0  0  0  0
    0.7145   -0.4125    0.0000 C   0  0  0  0  0  0  0  0  0  0  0  0
    0.0000   -0.0000    0.0000 N   0  0  0  0  0  0  0  0  0  0  0  0
   -0.7145   -0.4125    0.0000 C   0  0  0  0  0  0  0  0  0  0  0  0
   -0.7145   -1.2375    0.0000 C   0  0  0  0  0  0  0  0  0  0  0  0
   -1.4289   -1.6500    0.0000 C   0  0  0  0  0  0  0  0  0  0  0  0
   -2.1434   -1.2375    0.0000 C   0  0  0  0  0  0  0  0  0  0  0  0
   -2.1434   -0.4125    0.0000 C   0  0  0  0  0  0  0  0  0  0  0  0
   -1.4289   -0.0000    0.0000 C   0  0  0  0  0  0  0  0  0  0  0  0
   -2.8579   -0.0000    0.0000 C   0  0  0  0  0  0  0  0  0  0  0  0
   -2.4454    0.7145    0.0000 C   0  0  0  0  0  0  0  0  0  0  0  0
   -3.2704   -0.7145    0.0000 C   0  0  0  0  0  0  0  0  0  0  0  0
   -3.5724    0.4125    0.0000 C   0  0  0  0  0  0  0  0  0  0  0  0
   -4.2868    0.8250    0.0000 N   0  0  0  0  0  0  0  0  0  0  0  0
  1  2  1  0  0  0  0
  2  3  1  0  0  0  0
  3  4  2  0  0  0  0
  3  5  1  0  0  0  0
  5  6  2  0  0  0  0
  6  7  1  0  0  0  0
  7  8  1  0  0  0  0
  8  9  1  0  0  0  0
  9 10  1  0  0  0  0
 10 11  1  0  0  0  0
  6 11  1  0  0  0  0
 11 12  2  0  0  0  0
 12 13  1  0  0  0  0
 13 14  2  0  0  0  0
  5 14  1  0  0  0  0
 14 15  1  0  0  0  0
 15 16  1  0  0  0  0
 16 17  2  0  0  0  0
 17 18  1  0  0  0  0
 18 19  2  0  0  0  0
 19 20  1  0  0  0  0
 20 21  2  0  0  0  0
 16 21  1  0  0  0  0
 20 22  1  0  0  0  0
 22 23  1  0  0  0  0
 22 24  1  0  0  0  0
 22 25  1  0  0  0  0
 25 26  3  0  0  0  0
M  END
> <ID>
CPD_2415

$$$$
CPD_2420
  Mrv1822 09091914012D          

 30 33  0  0  0  0            999 V2000
   -0.6459    1.2645    0.0000 C   0  0  0  0  0  0  0  0  0  0  0  0
    0.1220    0.9631    0.0000 C   0  0  0  0  0  0  0  0  0  0  0  0
    0.7670    1.4774    0.0000 N   0  0  0  0  0  0  0  0  0  0  0  0
    0.2450    0.1473    0.0000 C   0  0  0  0  0  0  0  0  0  0  0  0
    1.0130   -0.1541    0.0000 C   0  0  0  0  0  0  0  0  0  0  0  0
    1.6580    0.3603    0.0000 N   0  0  0  0  0  0  0  0  0  0  0  0
    1.4744    1.1646    0.0000 C   0  0  0  0  0  0  0  0  0  0  0  0
    1.9888    1.8096    0.0000 C   0  0  0  0  0  0  0  0  0  0  0  0
    2.8138    1.8096    0.0000 C   0  0  0  0  0  0  0  0  0  0  0  0
    3.3281    1.1646    0.0000 C   0  0  0  0  0  0  0  0  0  0  0  0
    3.1446    0.3603    0.0000 C   0  0  0  0  0  0  0  0  0  0  0  0
    2.4013    0.0023    0.0000 C   0  0  0  0  0  0  0  0  0  0  0  0
    2.4013   -0.8227    0.0000 C   0  0  0  0  0  0  0  0  0  0  0  0
    1.7338   -1.3076    0.0000 N   0  0  0  0  0  0  0  0  0  0  0  0
    1.9888   -2.0922    0.0000 C   0  0  0  0  0  0  0  0  0  0  0  0
    2.8138   -2.0922    0.0000 O   0  0  0  0  0  0  0  0  0  0  0  0
    3.0687   -1.3076    0.0000 C   0  0  0  0  0  0  0  0  0  0  0  0
    3.8533   -1.0527    0.0000 O   0  0  0  0  0  0  0  0  0  0  0  0
    1.5038   -2.7597    0.0000 C   0  0  0  0  0  0  0  0  0  0  0  0
    1.8394   -3.5134    0.0000 C   0  0  0  0  0  0  0  0  0  0  0  0
    1.3545   -4.1808    0.0000 C   0  0  0  0  0  0  0  0  0  0  0  0
    0.5340   -4.0946    0.0000 C   0  0  0  0  0  0  0  0  0  0  0  0
    0.1984   -3.3409    0.0000 C   0  0  0  0  0  0  0  0  0  0  0  0
    0.6834   -2.6734    0.0000 C   0  0  0  0  0  0  0  0  0  0  0  0
    1.1359   -0.9699    0.0000 C   0  0  0  0  0  0  0  0  0  0  0  0
    1.5801   -1.6652    0.0000 F   0  0  0  0  0  0  0  0  0  0  0  0
    0.4909   -1.4843    0.0000 C   0  0  0  0  0  0  0  0  0  0  0  0
   -0.2771   -1.1829    0.0000 C   0  0  0  0  0  0  0  0  0  0  0  0
   -0.4000   -0.3671    0.0000 C   0  0  0  0  0  0  0  0  0  0  0  0
   -1.1680   -0.0657    0.0000 Cl  0  0  0  0  0  0  0  0  0  0  0  0
  1  2  1  0  0  0  0
  2  3  1  0  0  0  0
  2  4  1  0  0  0  0
  4  5  2  0  0  0  0
  5  6  1  0  0  0  0
  6  7  1  0  0  0  0
  7  8  1  0  0  0  0
  8  9  1  0  0  0  0
  9 10  1  0  0  0  0
 10 11  1  0  0  0  0
 11 12  1  0  0  0  0
  6 12  1  0  0  0  0
 12 13  2  0  0  0  0
 13 14  1  0  0  0  0
 14 15  2  0  0  0  0
 15 16  1  0  0  0  0
 16 17  1  0  0  0  0
 13 17  1  0  0  0  0
 17 18  2  0  0  0  0
 15 19  1  0  0  0  0
 19 20  2  0  0  0  0
 20 21  1  0  0  0  0
 21 22  2  0  0  0  0
 22 23  1  0  0  0  0
 23 24  2  0  0  0  0
 19 24  1  0  0  0  0
  5 25  1  0  0  0  0
 25 26  1  0  0  0  0
 25 27  2  0  0  0  0
 27 28  1  0  0  0  0
 28 29  2  0  0  0  0
  4 29  1  0  0  0  0
 29 30  1  0  0  0  0
M  END
> <ID>
CPD_2420

$$$$
CPD_2425
  Mrv1822 09091914012D          

 27 31  0  0  0  0            999 V2000
    1.0550    1.0204    0.0000 F   0  0  0  0  0  0  0  0  0  0  0  0
    0.5030    0.4073    0.0000 C   0  0  0  0  0  0  0  0  0  0  0  0
    0.7579   -0.3773    0.0000 C   0  0  0  0  0  0  0  0  0  0  0  0
    1.5649   -0.5488    0.0000 C   0  0  0  0  0  0  0  0  0  0  0  0
    1.8198   -1.3335    0.0000 N   0  0  0  0  0  0  0  0  0  0  0  0
    1.3349   -2.0009    0.0000 N   0  0  0  0  0  0  0  0  0  0  0  0
    1.8198   -2.6683    0.0000 C   0  0  0  0  0  0  0  0  0  0  0  0
    1.5649   -3.4530    0.0000 N   0  0  0  0  0  0  0  0  0  0  0  0
    0.7579   -3.6245    0.0000 C   0  0  0  0  0  0  0  0  0  0  0  0
    0.5030   -4.4091    0.0000 C   0  0  0  0  0  0  0  0  0  0  0  0
   -0.3040   -4.5806    0.0000 C   0  0  0  0  0  0  0  0  0  0  0  0
   -0.8560   -3.9675    0.0000 C   0  0  0  0  0  0  0  0  0  0  0  0
   -0.6011   -3.1829    0.0000 C   0  0  0  0  0  0  0  0  0  0  0  0
   -1.0136   -2.4684    0.0000 C   0  0  0  0  0  0  0  0  0  0  0  0
   -0.4615   -1.8553    0.0000 S   0  0  0  0  0  0  0  0  0  0  0  0
    0.2921   -2.1909    0.0000 N   0  0  0  0  0  0  0  0  0  0  0  0
    0.2059   -3.0114    0.0000 C   0  0  0  0  0  0  0  0  0  0  0  0
    2.6045   -2.4134    0.0000 C   0  0  0  0  0  0  0  0  0  0  0  0
    3.3189   -2.8259    0.0000 C   0  0  0  0  0  0  0  0  0  0  0  0
    4.0334   -2.4134    0.0000 C   0  0  0  0  0  0  0  0  0  0  0  0
    4.0334   -1.5884    0.0000 C   0  0  0  0  0  0  0  0  0  0  0  0
    3.3189   -1.1759    0.0000 N   0  0  0  0  0  0  0  0  0  0  0  0
    2.6045   -1.5884    0.0000 C   0  0  0  0  0  0  0  0  0  0  0  0
    0.2059   -0.9904    0.0000 C   0  0  0  0  0  0  0  0  0  0  0  0
   -0.6011   -0.8189    0.0000 C   0  0  0  0  0  0  0  0  0  0  0  0
   -0.8560   -0.0343    0.0000 C   0  0  0  0  0  0  0  0  0  0  0  0
   -0.3040    0.5788    0.0000 C   0  0  0  0  0  0  0  0  0  0  0  0
  1  2  1  0  0  0  0
  2  3  2  0  0  0  0
  3  4  1  0  0  0  0
  4  5  1  0  0  0  0
  5  6  1  0  0  0  0
  6  7  2  0  0  0  0
  7  8  1  0  0  0  0
  8  9  1  0  0  0  0
  9 10  2  0  0  0  0
 10 11  1  0  0  0  0
 11 12  2  0  0  0  0
 12 13  1  0  0  0  0
 13 14  2  0  0  0  0
 14 15  1  0  0  0  0
 15 16  1  0  0  0  0
 16 17  2  0  0  0  0
  9 17  1  0  0  0  0
 13 17  1  0  0  0  0
  7 18  1  0  0  0  0
 18 19  2  0  0  0  0
 19 20  1  0  0  0  0
 20 21  2  0  0  0  0
 21 22  1  0  0  0  0
 22 23  2  0  0  0  0
  5 23  1  0  0  0  0
 18 23  1  0  0  0  0
  3 24  1  0  0  0  0
 24 25  2  0  0  0  0
 25 26  1  0  0  0  0
 26 27  2  0  0  0  0
  2 27  1  0  0  0  0
M  END
> <ID>
CPD_2425

$$$$
CPD_2430
  Mrv1822 09091914012D          

 24 26  0  0  0  0            999 V2000
   -0.7145    5.9411    0.0000 N   0  0  0  0  0  0  0  0  0  0  0  0
   -0.7145    6.7661    0.0000 C   0  0  0  0  0  0  0  0  0  0  0  0
   -1.4289    7.1786    0.0000 C   0  0  0  0  0  0  0  0  0  0  0  0
   -1.4289    8.0036    0.0000 C   0  0  0  0  0  0  0  0  0  0  0  0
   -2.1434    8.4161    0.0000 Br  0  0  0  0  0  0  0  0  0  0  0  0
   -0.7145    8.4161    0.0000 C   0  0  0  0  0  0  0  0  0  0  0  0
   -0.7145    9.2411    0.0000 Br  0  0  0  0  0  0  0  0  0  0  0  0
   -0.0000    8.0036    0.0000 C   0  0  0  0  0  0  0  0  0  0  0  0
   -0.0000    7.1786    0.0000 C   0  0  0  0  0  0  0  0  0  0  0  0
    0.7145    6.7661    0.0000 N   0  0  0  0  0  0  0  0  0  0  0  0
    0.7145    5.9411    0.0000 C   0  0  0  0  0  0  0  0  0  0  0  0
    1.4289    5.5286    0.0000 C   0  0  0  0  0  0  0  0  0  0  0  0
    1.4289    4.7036    0.0000 C   0  0  0  0  0  0  0  0  0  0  0  0
    0.7145    4.2911    0.0000 C   0  0  0  0  0  0  0  0  0  0  0  0
    0.0000    4.7036    0.0000 C   0  0  0  0  0  0  0  0  0  0  0  0
   -0.0000    5.5286    0.0000 C   0  0  0  0  0  0  0  0  0  0  0  0
    0.7145    3.4661    0.0000 C   0  0  0  0  0  0  0  0  0  0  0  0
    1.3819    2.9812    0.0000 N   0  0  0  0  0  0  0  0  0  0  0  0
    1.1270    2.1965    0.0000 N   0  0  0  0  0  0  0  0  0  0  0  0
    0.3020    2.1965    0.0000 C   0  0  0  0  0  0  0  0  0  0  0  0
    0.0470    2.9812    0.0000 C   0  0  0  0  0  0  0  0  0  0  0  0
   -0.1830    1.5291    0.0000 C   0  0  0  0  0  0  0  0  0  0  0  0
    0.1526    0.7754    0.0000 O   0  0  0  0  0  0  0  0  0  0  0  0
   -1.0034    1.6153    0.0000 O   0  0  0  0  0  0  0  0  0  0  0  0
  1  2  1  0  0  0  0
  2  3  2  0  0  0  0
  3  4  1  0  0  0  0
  4  5  1  0  0  0  0
  4  6  2  0  0  0  0
  6  7  1  0  0  0  0
  6  8  1  0  0  0  0
  8  9  2  0  0  0  0
  2  9  1  0  0  0  0
  9 10  1  0  0  0  0
 10 11  1  0  0  0  0
 11 12  2  0  0  0  0
 12 13  1  0  0  0  0
 13 14  2  0  0  0  0
 14 15  1  0  0  0  0
 15 16  2  0  0  0  0
 11 16  1  0  0  0  0
 14 17  1  0  0  0  0
 17 18  2  0  0  0  0
 18 19  1  0  0  0  0
 19 20  1  0  0  0  0
 20 21  2  0  0  0  0
 17 21  1  0  0  0  0
 20 22  1  0  0  0  0
 22 23  1  0  0  0  0
 22 24  2  0  0  0  0
M  END
> <ID>
CPD_2430

$$$$
CPD_2435
  Mrv1822 09091914012D          

 22 24  0  0  0  0            999 V2000
    4.1801   -1.7116    0.0000 N   0  0  0  0  0  0  0  0  0  0  0  0
    4.1801   -2.5366    0.0000 C   0  0  0  0  0  0  0  0  0  0  0  0
    4.8476   -3.0215    0.0000 C   0  0  0  0  0  0  0  0  0  0  0  0
    4.5926   -3.8062    0.0000 N   0  0  0  0  0  0  0  0  0  0  0  0
    3.7676   -3.8062    0.0000 N   0  0  0  0  0  0  0  0  0  0  0  0
    3.5127   -3.0215    0.0000 S   0  0  0  0  0  0  0  0  0  0  0  0
    5.6322   -2.7666    0.0000 C   0  0  0  0  0  0  0  0  0  0  0  0
    5.8037   -1.9596    0.0000 C   0  0  0  0  0  0  0  0  0  0  0  0
    6.5883   -1.7047    0.0000 C   0  0  0  0  0  0  0  0  0  0  0  0
    7.2014   -2.2567    0.0000 C   0  0  0  0  0  0  0  0  0  0  0  0
    7.9860   -2.0018    0.0000 N   0  0  0  0  0  0  0  0  0  0  0  0
    8.5991   -2.5538    0.0000 C   0  0  0  0  0  0  0  0  0  0  0  0
    9.3838   -2.2989    0.0000 C   0  0  0  0  0  0  0  0  0  0  0  0
    9.9969   -2.8509    0.0000 C   0  0  0  0  0  0  0  0  0  0  0  0
   10.7815   -2.5960    0.0000 Br  0  0  0  0  0  0  0  0  0  0  0  0
    9.8253   -3.6579    0.0000 C   0  0  0  0  0  0  0  0  0  0  0  0
   10.4384   -4.2099    0.0000 Br  0  0  0  0  0  0  0  0  0  0  0  0
    9.0407   -3.9128    0.0000 C   0  0  0  0  0  0  0  0  0  0  0  0
    8.4276   -3.3608    0.0000 C   0  0  0  0  0  0  0  0  0  0  0  0
    7.6430   -3.6157    0.0000 N   0  0  0  0  0  0  0  0  0  0  0  0
    7.0299   -3.0637    0.0000 C   0  0  0  0  0  0  0  0  0  0  0  0
    6.2453   -3.3186    0.0000 C   0  0  0  0  0  0  0  0  0  0  0  0
  1  2  1  0  0  0  0
  2  3  2  0  0  0  0
  3  4  1  0  0  0  0
  4  5  2  0  0  0  0
  5  6  1  0  0  0  0
  2  6  1  0  0  0  0
  3  7  1  0  0  0  0
  7  8  2  0  0  0  0
  8  9  1  0  0  0  0
  9 10  2  0  0  0  0
 10 11  1  0  0  0  0
 11 12  1  0  0  0  0
 12 13  2  0  0  0  0
 13 14  1  0  0  0  0
 14 15  1  0  0  0  0
 14 16  2  0  0  0  0
 16 17  1  0  0  0  0
 16 18  1  0  0  0  0
 18 19  2  0  0  0  0
 12 19  1  0  0  0  0
 19 20  1  0  0  0  0
 10 21  1  0  0  0  0
 21 22  2  0  0  0  0
  7 22  1  0  0  0  0
M  END
> <ID>
CPD_2435

$$$$
CPD_2440
  Mrv1822 09091914012D          

 35 38  0  0  0  0            999 V2000
   -2.8579   17.9036    0.0000 F   0  0  0  0  0  0  0  0  0  0  0  0
   -2.8579   17.0786    0.0000 C   0  0  0  0  0  0  0  0  0  0  0  0
   -2.1434   16.6661    0.0000 C   0  0  0  0  0  0  0  0  0  0  0  0
   -2.1434   15.8411    0.0000 C   0  0  0  0  0  0  0  0  0  0  0  0
   -2.8579   15.4286    0.0000 C   0  0  0  0  0  0  0  0  0  0  0  0
   -2.8579   14.6036    0.0000 C   0  0  0  0  0  0  0  0  0  0  0  0
   -2.1434   14.1911    0.0000 N   0  0  0  0  0  0  0  0  0  0  0  0
   -2.1434   13.3661    0.0000 C   0  0  0  0  0  0  0  0  0  0  0  0
   -1.4289   12.9536    0.0000 C   0  0  0  0  0  0  0  0  0  0  0  0
   -0.7145   13.3661    0.0000 F   0  0  0  0  0  0  0  0  0  0  0  0
   -1.4289   12.1286    0.0000 C   0  0  0  0  0  0  0  0  0  0  0  0
   -2.1434   11.7161    0.0000 C   0  0  0  0  0  0  0  0  0  0  0  0
   -2.1434   10.8911    0.0000 N   0  0  0  0  0  0  0  0  0  0  0  0
   -1.4289   10.4786    0.0000 C   0  0  0  0  0  0  0  0  0  0  0  0
   -1.4289    9.6536    0.0000 C   0  0  0  0  0  0  0  0  0  0  0  0
   -2.1434    9.2411    0.0000 O   0  0  0  0  0  0  0  0  0  0  0  0
   -0.7145    9.2411    0.0000 N   0  0  0  0  0  0  0  0  0  0  0  0
   -0.7145    8.4161    0.0000 C   0  0  0  0  0  0  0  0  0  0  0  0
   -0.0000    8.0036    0.0000 C   0  0  0  0  0  0  0  0  0  0  0  0
   -0.0000    7.1786    0.0000 C   0  0  0  0  0  0  0  0  0  0  0  0
   -0.7145    6.7661    0.0000 C   0  0  0  0  0  0  0  0  0  0  0  0
   -0.7145    5.9411    0.0000 N   0  0  0  0  0  0  0  0  0  0  0  0
   -0.0000    5.5286    0.0000 C   0  0  0  0  0  0  0  0  0  0  0  0
    0.7145    5.9411    0.0000 O   0  0  0  0  0  0  0  0  0  0  0  0
   -0.0000    4.7036    0.0000 C   0  0  0  0  0  0  0  0  0  0  0  0
    0.6674    4.2187    0.0000 C   0  0  0  0  0  0  0  0  0  0  0  0
    0.4125    3.4340    0.0000 C   0  0  0  0  0  0  0  0  0  0  0  0
   -0.4125    3.4340    0.0000 C   0  0  0  0  0  0  0  0  0  0  0  0
   -0.6674    4.2187    0.0000 O   0  0  0  0  0  0  0  0  0  0  0  0
   -1.4289    7.1786    0.0000 C   0  0  0  0  0  0  0  0  0  0  0  0
   -1.4289    8.0036    0.0000 C   0  0  0  0  0  0  0  0  0  0  0  0
   -2.8579   12.1286    0.0000 C   0  0  0  0  0  0  0  0  0  0  0  0
   -2.8579   12.9536    0.0000 C   0  0  0  0  0  0  0  0  0  0  0  0
   -3.5724   15.8411    0.0000 C   0  0  0  0  0  0  0  0  0  0  0  0
   -3.5724   16.6661    0.0000 C   0  0  0  0  0  0  0  0  0  0  0  0
  1  2  1  0  0  0  0
  2  3  2  0  0  0  0
  3  4  1  0  0  0  0
  4  5  2  0  0  0  0
  5  6  1  0  0  0  0
  6  7  1  0  0  0  0
  7  8  1  0  0  0  0
  8  9  2  0  0  0  0
  9 10  1  0  0  0  0
  9 11  1  0  0  0  0
 11 12  2  0  0  0  0
 12 13  1  0  0  0  0
 13 14  1  0  0  0  0
 14 15  1  0  0  0  0
 15 16  2  0  0  0  0
 15 17  1  0  0  0  0
 17 18  1  0  0  0  0
 18 19  2  0  0  0  0
 19 20  1  0  0  0  0
 20 21  2  0  0  0  0
 21 22  1  0  0  0  0
 22 23  1  0  0  0  0
 23 24  2  0  0  0  0
 23 25  1  0  0  0  0
 25 26  2  0  0  0  0
 26 27  1  0  0  0  0
 27 28  2  0  0  0  0
 28 29  1  0  0  0  0
 25 29  1  0  0  0  0
 21 30  1  0  0  0  0
 30 31  2  0  0  0  0
 18 31  1  0  0  0  0
 12 32  1  0  0  0  0
 32 33  2  0  0  0  0
  8 33  1  0  0  0  0
  5 34  1  0  0  0  0
 34 35  2  0  0  0  0
  2 35  1  0  0  0  0
M  END
> <ID>
CPD_2440

$$$$
CPD_2445
  Mrv1822 09091914012D          

 28 30  0  0  0  0            999 V2000
   -0.7145   -3.7125    0.0000 C   0  0  0  0  0  0  0  0  0  0  0  0
   -0.7145   -2.8875    0.0000 C   0  0  0  0  0  0  0  0  0  0  0  0
   -1.4289   -2.4750    0.0000 C   0  0  0  0  0  0  0  0  0  0  0  0
   -1.4289   -1.6500    0.0000 C   0  0  0  0  0  0  0  0  0  0  0  0
   -2.1434   -1.2375    0.0000 Br  0  0  0  0  0  0  0  0  0  0  0  0
   -0.7145   -1.2375    0.0000 C   0  0  0  0  0  0  0  0  0  0  0  0
   -0.7145   -0.4125    0.0000 F   0  0  0  0  0  0  0  0  0  0  0  0
    0.0000   -1.6500    0.0000 C   0  0  0  0  0  0  0  0  0  0  0  0
    0.0000   -2.4750    0.0000 C   0  0  0  0  0  0  0  0  0  0  0  0
    0.7145   -2.8875    0.0000 N   0  0  0  0  0  0  0  0  0  0  0  0
    1.4289   -2.4750    0.0000 C   0  0  0  0  0  0  0  0  0  0  0  0
    2.1434   -2.8875    0.0000 C   0  0  0  0  0  0  0  0  0  0  0  0
    2.1434   -3.7125    0.0000 O   0  0  0  0  0  0  0  0  0  0  0  0
    2.8579   -2.4750    0.0000 N   0  0  0  0  0  0  0  0  0  0  0  0
    3.5724   -2.8875    0.0000 C   0  0  0  0  0  0  0  0  0  0  0  0
    4.2868   -2.4750    0.0000 C   0  0  0  0  0  0  0  0  0  0  0  0
    5.0013   -2.8875    0.0000 C   0  0  0  0  0  0  0  0  0  0  0  0
    5.0013   -3.7125    0.0000 C   0  0  0  0  0  0  0  0  0  0  0  0
    5.7158   -4.1250    0.0000 N   0  0  0  0  0  0  0  0  0  0  0  0
    6.4302   -3.7125    0.0000 C   0  0  0  0  0  0  0  0  0  0  0  0
    6.4302   -2.8875    0.0000 O   0  0  0  0  0  0  0  0  0  0  0  0
    7.1447   -4.1250    0.0000 C   0  0  0  0  0  0  0  0  0  0  0  0
    7.8984   -3.7894    0.0000 C   0  0  0  0  0  0  0  0  0  0  0  0
    8.4504   -4.4025    0.0000 C   0  0  0  0  0  0  0  0  0  0  0  0
    8.0379   -5.1170    0.0000 C   0  0  0  0  0  0  0  0  0  0  0  0
    7.2309   -4.9455    0.0000 O   0  0  0  0  0  0  0  0  0  0  0  0
    4.2868   -4.1250    0.0000 C   0  0  0  0  0  0  0  0  0  0  0  0
    3.5724   -3.7125    0.0000 C   0  0  0  0  0  0  0  0  0  0  0  0
  1  2  1  0  0  0  0
  2  3  2  0  0  0  0
  3  4  1  0  0  0  0
  4  5  1  0  0  0  0
  4  6  2  0  0  0  0
  6  7  1  0  0  0  0
  6  8  1  0  0  0  0
  8  9  2  0  0  0  0
  2  9  1  0  0  0  0
  9 10  1  0  0  0  0
 10 11  1  0  0  0  0
 11 12  1  0  0  0  0
 12 13  2  0  0  0  0
 12 14  1  0  0  0  0
 14 15  1  0  0  0  0
 15 16  2  0  0  0  0
 16 17  1  0  0  0  0
 17 18  2  0  0  0  0
 18 19  1  0  0  0  0
 19 20  1  0  0  0  0
 20 21  2  0  0  0  0
 20 22  1  0  0  0  0
 22 23  2  0  0  0  0
 23 24  1  0  0  0  0
 24 25  2  0  0  0  0
 25 26  1  0  0  0  0
 22 26  1  0  0  0  0
 18 27  1  0  0  0  0
 27 28  2  0  0  0  0
 15 28  1  0  0  0  0
M  END
> <ID>
CPD_2445

$$$$
CPD_2450
  Mrv1822 09091914012D          

 32 34  0  0  0  0            999 V2000
    1.4289    0.8250    0.0000 C   0  0  0  0  0  0  0  0  0  0  0  0
    1.4289    0.0000    0.0000 C   0  0  0  0  0  0  0  0  0  0  0  0
    0.7145   -0.4125    0.0000 O   0  0  0  0  0  0  0  0  0  0  0  0
    0.7145   -1.2375    0.0000 C   0  0  0  0  0  0  0  0  0  0  0  0
    1.4289   -1.6500    0.0000 O   0  0  0  0  0  0  0  0  0  0  0  0
    0.0000   -1.6500    0.0000 C   0  0  0  0  0  0  0  0  0  0  0  0
    0.0000   -2.4750    0.0000 C   0  0  0  0  0  0  0  0  0  0  0  0
    0.7145   -2.8875    0.0000 N   0  0  0  0  0  0  0  0  0  0  0  0
    1.4289   -2.4750    0.0000 C   0  0  0  0  0  0  0  0  0  0  0  0
    2.1434   -2.8875    0.0000 C   0  0  0  0  0  0  0  0  0  0  0  0
    2.1434   -3.7125    0.0000 O   0  0  0  0  0  0  0  0  0  0  0  0
    2.8579   -2.4750    0.0000 N   0  0  0  0  0  0  0  0  0  0  0  0
    3.5724   -2.8875    0.0000 C   0  0  0  0  0  0  0  0  0  0  0  0
    4.2868   -2.4750    0.0000 C   0  0  0  0  0  0  0  0  0  0  0  0
    5.0013   -2.8875    0.0000 C   0  0  0  0  0  0  0  0  0  0  0  0
    5.0013   -3.7125    0.0000 C   0  0  0  0  0  0  0  0  0  0  0  0
    5.7158   -4.1250    0.0000 N   0  0  0  0  0  0  0  0  0  0  0  0
    6.4302   -3.7125    0.0000 C   0  0  0  0  0  0  0  0  0  0  0  0
    6.4302   -2.8875    0.0000 O   0  0  0  0  0  0  0  0  0  0  0  0
    7.1447   -4.1250    0.0000 C   0  0  0  0  0  0  0  0  0  0  0  0
    7.8984   -3.7894    0.0000 C   0  0  0  0  0  0  0  0  0  0  0  0
    8.4504   -4.4025    0.0000 C   0  0  0  0  0  0  0  0  0  0  0  0
    8.0379   -5.1170    0.0000 C   0  0  0  0  0  0  0  0  0  0  0  0
    7.2309   -4.9455    0.0000 O   0  0  0  0  0  0  0  0  0  0  0  0
    4.2868   -4.1250    0.0000 C   0  0  0  0  0  0  0  0  0  0  0  0
    3.5724   -3.7125    0.0000 C   0  0  0  0  0  0  0  0  0  0  0  0
   -0.7145   -2.8875    0.0000 N   0  0  0  0  0  0  0  0  0  0  0  0
   -1.4289   -2.4750    0.0000 C   0  0  0  0  0  0  0  0  0  0  0  0
   -2.1434   -2.8875    0.0000 O   0  0  0  0  0  0  0  0  0  0  0  0
   -2.8579   -2.4750    0.0000 C   0  0  0  0  0  0  0  0  0  0  0  0
   -1.4289   -1.6500    0.0000 N   0  0  0  0  0  0  0  0  0  0  0  0
   -0.7145   -1.2375    0.0000 C   0  0  0  0  0  0  0  0  0  0  0  0
  1  2  1  0  0  0  0
  2  3  1  0  0  0  0
  3  4  1  0  0  0  0
  4  5  2  0  0  0  0
  4  6  1  0  0  0  0
  6  7  2  0  0  0  0
  7  8  1  0  0  0  0
  8  9  1  0  0  0  0
  9 10  1  0  0  0  0
 10 11  2  0  0  0  0
 10 12  1  0  0  0  0
 12 13  1  0  0  0  0
 13 14  2  0  0  0  0
 14 15  1  0  0  0  0
 15 16  2  0  0  0  0
 16 17  1  0  0  0  0
 17 18  1  0  0  0  0
 18 19  2  0  0  0  0
 18 20  1  0  0  0  0
 20 21  2  0  0  0  0
 21 22  1  0  0  0  0
 22 23  2  0  0  0  0
 23 24  1  0  0  0  0
 20 24  1  0  0  0  0
 16 25  1  0  0  0  0
 25 26  2  0  0  0  0
 13 26  1  0  0  0  0
  7 27  1  0  0  0  0
 27 28  2  0  0  0  0
 28 29  1  0  0  0  0
 29 30  1  0  0  0  0
 28 31  1  0  0  0  0
 31 32  2  0  0  0  0
  6 32  1  0  0  0  0
M  END
> <ID>
CPD_2450

$$$$
CPD_2455
  Mrv1822 09091914012D          

 22 23  0  0  0  0            999 V2000
    0.7145    1.2375    0.0000 C   0  0  0  0  0  0  0  0  0  0  0  0
    1.4289    0.8250    0.0000 O   0  0  0  0  0  0  0  0  0  0  0  0
    1.4289    0.0000    0.0000 C   0  0  0  0  0  0  0  0  0  0  0  0
    0.7145   -0.4125    0.0000 O   0  0  0  0  0  0  0  0  0  0  0  0
    2.1434   -0.4125    0.0000 C   0  0  0  0  0  0  0  0  0  0  0  0
    2.1434   -1.2375    0.0000 C   0  0  0  0  0  0  0  0  0  0  0  0
    2.8579   -1.6500    0.0000 C   0  0  0  0  0  0  0  0  0  0  0  0
    3.5724   -1.2375    0.0000 F   0  0  0  0  0  0  0  0  0  0  0  0
    2.8579   -2.4750    0.0000 C   0  0  0  0  0  0  0  0  0  0  0  0
    2.1434   -2.8875    0.0000 C   0  0  0  0  0  0  0  0  0  0  0  0
    2.1434   -3.7125    0.0000 N   0  0  0  0  0  0  0  0  0  0  0  0
    1.4289   -4.1250    0.0000 C   0  0  0  0  0  0  0  0  0  0  0  0
    1.4289   -4.9500    0.0000 C   0  0  0  0  0  0  0  0  0  0  0  0
    0.7145   -5.3625    0.0000 N   0  0  0  0  0  0  0  0  0  0  0  0
   -0.0000   -4.9500    0.0000 C   0  0  0  0  0  0  0  0  0  0  0  0
   -0.0000   -4.1250    0.0000 C   0  0  0  0  0  0  0  0  0  0  0  0
   -0.7145   -3.7125    0.0000 F   0  0  0  0  0  0  0  0  0  0  0  0
    0.7145   -3.7125    0.0000 C   0  0  0  0  0  0  0  0  0  0  0  0
    2.1434   -5.3625    0.0000 C   0  0  0  0  0  0  0  0  0  0  0  0
    2.8579   -5.7750    0.0000 N   0  0  0  0  0  0  0  0  0  0  0  0
    1.4289   -2.4750    0.0000 C   0  0  0  0  0  0  0  0  0  0  0  0
    1.4289   -1.6500    0.0000 C   0  0  0  0  0  0  0  0  0  0  0  0
  1  2  1  0  0  0  0
  2  3  1  0  0  0  0
  3  4  2  0  0  0  0
  3  5  1  0  0  0  0
  5  6  1  0  0  0  0
  6  7  2  0  0  0  0
  7  8  1  0  0  0  0
  7  9  1  0  0  0  0
  9 10  2  0  0  0  0
 10 11  1  0  0  0  0
 11 12  1  0  0  0  0
 12 13  2  0  0  0  0
 13 14  1  0  0  0  0
 14 15  2  0  0  0  0
 15 16  1  0  0  0  0
 16 17  1  0  0  0  0
 16 18  2  0  0  0  0
 12 18  1  0  0  0  0
 13 19  1  0  0  0  0
 19 20  3  0  0  0  0
 10 21  1  0  0  0  0
 21 22  2  0  0  0  0
  6 22  1  0  0  0  0
M  END
> <ID>
CPD_2455

$$$$
CPD_2460
  Mrv1822 09091914012D          

 28 30  0  0  0  0            999 V2000
    0.7145   -1.2375    0.0000 C   0  0  0  0  0  0  0  0  0  0  0  0
    1.4289   -1.6500    0.0000 O   0  0  0  0  0  0  0  0  0  0  0  0
    1.4289   -2.4750    0.0000 C   0  0  0  0  0  0  0  0  0  0  0  0
    0.7145   -2.8875    0.0000 O   0  0  0  0  0  0  0  0  0  0  0  0
    2.1434   -2.8875    0.0000 C   0  0  0  0  0  0  0  0  0  0  0  0
    2.1434   -3.7125    0.0000 C   0  0  0  0  0  0  0  0  0  0  0  0
    2.8579   -4.1250    0.0000 C   0  0  0  0  0  0  0  0  0  0  0  0
    3.5724   -3.7125    0.0000 F   0  0  0  0  0  0  0  0  0  0  0  0
    2.8579   -4.9500    0.0000 C   0  0  0  0  0  0  0  0  0  0  0  0
    2.1434   -5.3625    0.0000 C   0  0  0  0  0  0  0  0  0  0  0  0
    2.1434   -6.1875    0.0000 N   0  0  0  0  0  0  0  0  0  0  0  0
    2.8579   -6.6000    0.0000 C   0  0  0  0  0  0  0  0  0  0  0  0
    3.5724   -6.1875    0.0000 C   0  0  0  0  0  0  0  0  0  0  0  0
    4.2868   -6.6000    0.0000 C   0  0  0  0  0  0  0  0  0  0  0  0
    4.2868   -7.4250    0.0000 C   0  0  0  0  0  0  0  0  0  0  0  0
    3.5724   -7.8375    0.0000 C   0  0  0  0  0  0  0  0  0  0  0  0
    3.5724   -8.6625    0.0000 N   0  0  0  0  0  0  0  0  0  0  0  0
    4.2868   -9.0750    0.0000 C   0  0  0  0  0  0  0  0  0  0  0  0
    4.2868   -9.9000    0.0000 C   0  0  0  0  0  0  0  0  0  0  0  0
    3.5724  -10.3125    0.0000 N   0  0  0  0  0  0  0  0  0  0  0  0
    3.5724  -11.1375    0.0000 C   0  0  0  0  0  0  0  0  0  0  0  0
    2.8579   -9.9000    0.0000 C   0  0  0  0  0  0  0  0  0  0  0  0
    2.8579   -9.0750    0.0000 C   0  0  0  0  0  0  0  0  0  0  0  0
    2.8579   -7.4250    0.0000 C   0  0  0  0  0  0  0  0  0  0  0  0
    2.1434   -7.8375    0.0000 C   0  0  0  0  0  0  0  0  0  0  0  0
    1.4289   -8.2500    0.0000 N   0  0  0  0  0  0  0  0  0  0  0  0
    1.4289   -4.9500    0.0000 C   0  0  0  0  0  0  0  0  0  0  0  0
    1.4289   -4.1250    0.0000 C   0  0  0  0  0  0  0  0  0  0  0  0
  1  2  1  0  0  0  0
  2  3  1  0  0  0  0
  3  4  2  0  0  0  0
  3  5  1  0  0  0  0
  5  6  1  0  0  0  0
  6  7  2  0  0  0  0
  7  8  1  0  0  0  0
  7  9  1  0  0  0  0
  9 10  2  0  0  0  0
 10 11  1  0  0  0  0
 11 12  1  0  0  0  0
 12 13  2  0  0  0  0
 13 14  1  0  0  0  0
 14 15  2  0  0  0  0
 15 16  1  0  0  0  0
 16 17  1  0  0  0  0
 17 18  1  0  0  0  0
 18 19  1  0  0  0  0
 19 20  1  0  0  0  0
 20 21  1  0  0  0  0
 20 22  1  0  0  0  0
 22 23  1  0  0  0  0
 17 23  1  0  0  0  0
 16 24  2  0  0  0  0
 12 24  1  0  0  0  0
 24 25  1  0  0  0  0
 25 26  3  0  0  0  0
 10 27  1  0  0  0  0
 27 28  2  0  0  0  0
  6 28  1  0  0  0  0
M  END
> <ID>
CPD_2460

$$$$
CPD_2465
  Mrv1822 09091914012D          

 37 41  0  0  1  0            999 V2000
    7.6391    6.0604    0.0000 C   0  0  0  0  0  0  0  0  0  0  0  0
    6.9246    5.6479    0.0000 C   0  0  0  0  0  0  0  0  0  0  0  0
    6.2102    6.0604    0.0000 N   0  0  0  0  0  0  0  0  0  0  0  0
    5.4957    5.6479    0.0000 C   0  0  2  0  0  0  0  0  0  0  0  0
    4.7812    6.0604    0.0000 C   0  0  1  0  0  0  0  0  0  0  0  0
    4.7812    6.8854    0.0000 C   0  0  0  0  0  0  0  0  0  0  0  0
    5.4957    7.2979    0.0000 C   0  0  0  0  0  0  0  0  0  0  0  0
    6.2102    6.8854    0.0000 C   0  0  0  0  0  0  0  0  0  0  0  0
    6.9246    7.2979    0.0000 O   0  0  0  0  0  0  0  0  0  0  0  0
    4.0668    5.6479    0.0000 C   0  0  0  0  0  0  0  0  0  0  0  0
    3.3523    6.0604    0.0000 O   0  0  0  0  0  0  0  0  0  0  0  0
    4.0668    4.8229    0.0000 O   0  0  0  0  0  0  0  0  0  0  0  0
    5.4957    4.8229    0.0000 C   0  0  0  0  0  0  0  0  0  0  0  0
    6.2102    4.4104    0.0000 C   0  0  0  0  0  0  0  0  0  0  0  0
    6.2102    3.5854    0.0000 C   0  0  0  0  0  0  0  0  0  0  0  0
    5.4957    3.1729    0.0000 C   0  0  0  0  0  0  0  0  0  0  0  0
    4.7812    3.5854    0.0000 C   0  0  0  0  0  0  0  0  0  0  0  0
    4.7812    4.4104    0.0000 C   0  0  0  0  0  0  0  0  0  0  0  0
    4.0668    3.1729    0.0000 N   0  0  0  0  0  0  0  0  0  0  0  0
    3.3523    3.5854    0.0000 C   0  0  0  0  0  0  0  0  0  0  0  0
    2.6378    3.1729    0.0000 C   0  0  0  0  0  0  0  0  0  0  0  0
    1.9233    3.5854    0.0000 C   0  0  0  0  0  0  0  0  0  0  0  0
    1.2089    3.1729    0.0000 C   0  0  0  0  0  0  0  0  0  0  0  0
    0.4944    3.5854    0.0000 C   0  0  0  0  0  0  0  0  0  0  0  0
    0.4944    4.4104    0.0000 C   0  0  0  0  0  0  0  0  0  0  0  0
    1.2089    4.8229    0.0000 C   0  0  0  0  0  0  0  0  0  0  0  0
    1.9233    4.4104    0.0000 C   0  0  0  0  0  0  0  0  0  0  0  0
    4.0668    2.3479    0.0000 C   0  0  0  0  0  0  0  0  0  0  0  0
    3.3523    1.9354    0.0000 C   0  0  0  0  0  0  0  0  0  0  0  0
    3.3523    1.1104    0.0000 C   0  0  0  0  0  0  0  0  0  0  0  0
    2.6378    0.6979    0.0000 C   0  0  0  0  0  0  0  0  0  0  0  0
    1.9233    1.1104    0.0000 C   0  0  0  0  0  0  0  0  0  0  0  0
    1.1387    0.8555    0.0000 N   0  0  0  0  0  0  0  0  0  0  0  0
    0.6538    1.5229    0.0000 C   0  0  0  0  0  0  0  0  0  0  0  0
    1.1387    2.1904    0.0000 C   0  0  0  0  0  0  0  0  0  0  0  0
    1.9233    1.9354    0.0000 C   0  0  0  0  0  0  0  0  0  0  0  0
    2.6378    2.3479    0.0000 C   0  0  0  0  0  0  0  0  0  0  0  0
  1  2  1  0  0  0  0
  2  3  1  0  0  0  0
  4  3  1  0  0  0  0
  4  5  1  0  0  0  0
  5  6  1  0  0  0  0
  6  7  1  0  0  0  0
  7  8  1  0  0  0  0
  3  8  1  0  0  0  0
  8  9  2  0  0  0  0
  5 10  1  6  0  0  0
 10 11  1  0  0  0  0
 10 12  2  0  0  0  0
  4 13  1  1  0  0  0
 13 14  2  0  0  0  0
 14 15  1  0  0  0  0
 15 16  2  0  0  0  0
 16 17  1  0  0  0  0
 17 18  2  0  0  0  0
 13 18  1  0  0  0  0
 17 19  1  0  0  0  0
 19 20  1  0  0  0  0
 20 21  1  0  0  0  0
 21 22  1  0  0  0  0
 22 23  2  0  0  0  0
 23 24  1  0  0  0  0
 24 25  2  0  0  0  0
 25 26  1  0  0  0  0
 26 27  2  0  0  0  0
 22 27  1  0  0  0  0
 19 28  1  0  0  0  0
 28 29  1  0  0  0  0
 29 30  2  0  0  0  0
 30 31  1  0  0  0  0
 31 32  2  0  0  0  0
 32 33  1  0  0  0  0
 33 34  1  0  0  0  0
 34 35  2  0  0  0  0
 35 36  1  0  0  0  0
 32 36  1  0  0  0  0
 36 37  2  0  0  0  0
 29 37  1  0  0  0  0
M  END
> <ID>
CPD_2465

$$$$
CPD_2470
  Mrv1822 09091914012D          

 34 39  0  0  0  0            999 V2000
    1.4780    3.5496    0.0000 C   0  0  0  0  0  0  0  0  0  0  0  0
    2.0300    4.1626    0.0000 C   0  0  0  0  0  0  0  0  0  0  0  0
    1.7751    4.9473    0.0000 C   0  0  0  0  0  0  0  0  0  0  0  0
    0.9681    5.1188    0.0000 C   0  0  0  0  0  0  0  0  0  0  0  0
    0.7132    5.9034    0.0000 C   0  0  0  0  0  0  0  0  0  0  0  0
    1.2652    6.5165    0.0000 C   0  0  0  0  0  0  0  0  0  0  0  0
    2.0722    6.3450    0.0000 C   0  0  0  0  0  0  0  0  0  0  0  0
    2.3271    5.5604    0.0000 C   0  0  0  0  0  0  0  0  0  0  0  0
    1.7329    2.7649    0.0000 N   0  0  0  0  0  0  0  0  0  0  0  0
    2.5399    2.5934    0.0000 C   0  0  0  0  0  0  0  0  0  0  0  0
    3.0919    3.2065    0.0000 C   0  0  0  0  0  0  0  0  0  0  0  0
    3.8989    3.0350    0.0000 C   0  0  0  0  0  0  0  0  0  0  0  0
    4.4509    3.6481    0.0000 C   0  0  0  0  0  0  0  0  0  0  0  0
    4.1960    4.4327    0.0000 C   0  0  0  0  0  0  0  0  0  0  0  0
    4.6085    5.1472    0.0000 N   0  0  0  0  0  0  0  0  0  0  0  0
    4.0564    5.7603    0.0000 C   0  0  0  0  0  0  0  0  0  0  0  0
    3.3028    5.4247    0.0000 C   0  0  0  0  0  0  0  0  0  0  0  0
    3.3890    4.6042    0.0000 C   0  0  0  0  0  0  0  0  0  0  0  0
    2.8370    3.9911    0.0000 C   0  0  0  0  0  0  0  0  0  0  0  0
    1.1809    2.1518    0.0000 C   0  0  0  0  0  0  0  0  0  0  0  0
    1.4358    1.3672    0.0000 C   0  0  0  0  0  0  0  0  0  0  0  0
    0.8838    0.7541    0.0000 C   0  0  0  0  0  0  0  0  0  0  0  0
    0.0768    0.9256    0.0000 C   0  0  0  0  0  0  0  0  0  0  0  0
   -0.1781    1.7103    0.0000 C   0  0  0  0  0  0  0  0  0  0  0  0
    0.3739    2.3234    0.0000 C   0  0  0  0  0  0  0  0  0  0  0  0
    1.1387   -0.0305    0.0000 C   0  0  0  0  0  0  0  0  0  0  0  0
    1.9233   -0.2854    0.0000 C   0  0  0  0  0  0  0  0  0  0  0  0
    2.6378    0.1271    0.0000 C   0  0  0  0  0  0  0  0  0  0  0  0
    3.3523   -0.2854    0.0000 N   0  0  0  0  0  0  0  0  0  0  0  0
    3.3523   -1.1104    0.0000 C   0  0  0  0  0  0  0  0  0  0  0  0
    2.6378   -1.5229    0.0000 C   0  0  0  0  0  0  0  0  0  0  0  0
    1.9233   -1.1104    0.0000 C   0  0  0  0  0  0  0  0  0  0  0  0
    1.1387   -1.3654    0.0000 N   0  0  0  0  0  0  0  0  0  0  0  0
    0.6538   -0.6979    0.0000 N   0  0  0  0  0  0  0  0  0  0  0  0
  1  2  1  0  0  0  0
  2  3  1  0  0  0  0
  3  4  2  0  0  0  0
  4  5  1  0  0  0  0
  5  6  2  0  0  0  0
  6  7  1  0  0  0  0
  7  8  2  0  0  0  0
  3  8  1  0  0  0  0
  1  9  1  0  0  0  0
  9 10  1  0  0  0  0
 10 11  1  0  0  0  0
 11 12  2  0  0  0  0
 12 13  1  0  0  0  0
 13 14  2  0  0  0  0
 14 15  1  0  0  0  0
 15 16  1  0  0  0  0
 16 17  2  0  0  0  0
 17 18  1  0  0  0  0
 14 18  1  0  0  0  0
 18 19  2  0  0  0  0
 11 19  1  0  0  0  0
  9 20  1  0  0  0  0
 20 21  2  0  0  0  0
 21 22  1  0  0  0  0
 22 23  2  0  0  0  0
 23 24  1  0  0  0  0
 24 25  2  0  0  0  0
 20 25  1  0  0  0  0
 22 26  1  0  0  0  0
 26 27  2  0  0  0  0
 27 28  1  0  0  0  0
 28 29  1  0  0  0  0
 29 30  1  0  0  0  0
 30 31  1  0  0  0  0
 31 32  1  0  0  0  0
 27 32  1  0  0  0  0
 32 33  2  0  0  0  0
 33 34  1  0  0  0  0
 26 34  1  0  0  0  0
M  END
> <ID>
CPD_2470

$$$$
CPD_2475
  Mrv1822 09091914012D          

 23 25  0  0  0  0            999 V2000
   -0.8212    3.5277    0.0000 C   0  0  0  0  0  0  0  0  0  0  0  0
   -0.8212    4.3527    0.0000 O   0  0  0  0  0  0  0  0  0  0  0  0
   -1.5356    4.7652    0.0000 C   0  0  0  0  0  0  0  0  0  0  0  0
   -2.2501    4.3527    0.0000 C   0  0  0  0  0  0  0  0  0  0  0  0
   -2.9646    4.7652    0.0000 C   0  0  0  0  0  0  0  0  0  0  0  0
   -2.9646    5.5902    0.0000 C   0  0  0  0  0  0  0  0  0  0  0  0
   -3.6791    6.0027    0.0000 N   0  0  0  0  0  0  0  0  0  0  0  0
   -2.2501    6.0027    0.0000 N   0  0  0  0  0  0  0  0  0  0  0  0
   -1.5356    5.5902    0.0000 C   0  0  0  0  0  0  0  0  0  0  0  0
   -0.8212    6.0027    0.0000 N   0  0  0  0  0  0  0  0  0  0  0  0
   -0.1067    5.5902    0.0000 C   0  0  0  0  0  0  0  0  0  0  0  0
    0.6078    6.0027    0.0000 C   0  0  0  0  0  0  0  0  0  0  0  0
    1.3222    5.5902    0.0000 C   0  0  0  0  0  0  0  0  0  0  0  0
    1.3222    4.7652    0.0000 N   0  0  0  0  0  0  0  0  0  0  0  0
    0.6078    4.3527    0.0000 C   0  0  0  0  0  0  0  0  0  0  0  0
   -0.1067    4.7652    0.0000 C   0  0  0  0  0  0  0  0  0  0  0  0
    2.0367    4.3527    0.0000 C   0  0  0  0  0  0  0  0  0  0  0  0
    2.7512    4.7652    0.0000 O   0  0  0  0  0  0  0  0  0  0  0  0
    2.0367    3.5277    0.0000 N   0  0  0  0  0  0  0  0  0  0  0  0
    2.7041    3.0428    0.0000 C   0  0  0  0  0  0  0  0  0  0  0  0
    2.4492    2.2581    0.0000 C   0  0  0  0  0  0  0  0  0  0  0  0
    1.6242    2.2581    0.0000 C   0  0  0  0  0  0  0  0  0  0  0  0
    1.3693    3.0428    0.0000 C   0  0  0  0  0  0  0  0  0  0  0  0
  1  2  1  0  0  0  0
  2  3  1  0  0  0  0
  3  4  2  0  0  0  0
  4  5  1  0  0  0  0
  5  6  2  0  0  0  0
  6  7  1  0  0  0  0
  6  8  1  0  0  0  0
  8  9  2  0  0  0  0
  3  9  1  0  0  0  0
  9 10  1  0  0  0  0
 10 11  1  0  0  0  0
 11 12  1  0  0  0  0
 12 13  1  0  0  0  0
 13 14  1  0  0  0  0
 14 15  1  0  0  0  0
 15 16  1  0  0  0  0
 11 16  1  0  0  0  0
 14 17  1  0  0  0  0
 17 18  2  0  0  0  0
 17 19  1  0  0  0  0
 19 20  1  0  0  0  0
 20 21  1  0  0  0  0
 21 22  1  0  0  0  0
 22 23  1  0  0  0  0
 19 23  1  0  0  0  0
M  END
> <ID>
CPD_2475

$$$$
CPD_2480
  Mrv1822 09091914012D          

 31 34  0  0  0  0            999 V2000
   -6.5369    3.5277    0.0000 C   0  0  0  0  0  0  0  0  0  0  0  0
   -5.8225    3.1152    0.0000 C   0  0  0  0  0  0  0  0  0  0  0  0
   -5.1080    3.5277    0.0000 C   0  0  0  0  0  0  0  0  0  0  0  0
   -4.3935    3.1152    0.0000 C   0  0  0  0  0  0  0  0  0  0  0  0
   -4.3935    2.2902    0.0000 C   0  0  0  0  0  0  0  0  0  0  0  0
   -5.1080    1.8777    0.0000 C   0  0  0  0  0  0  0  0  0  0  0  0
   -5.8225    2.2902    0.0000 C   0  0  0  0  0  0  0  0  0  0  0  0
   -3.6791    3.5277    0.0000 C   0  0  0  0  0  0  0  0  0  0  0  0
   -2.9646    3.1152    0.0000 O   0  0  0  0  0  0  0  0  0  0  0  0
   -3.6791    4.3527    0.0000 N   0  0  0  0  0  0  0  0  0  0  0  0
   -2.9646    4.7652    0.0000 C   0  0  0  0  0  0  0  0  0  0  0  0
   -2.9646    5.5902    0.0000 C   0  0  0  0  0  0  0  0  0  0  0  0
   -2.2501    6.0027    0.0000 C   0  0  0  0  0  0  0  0  0  0  0  0
   -2.2501    6.8277    0.0000 F   0  0  0  0  0  0  0  0  0  0  0  0
   -1.5356    5.5902    0.0000 C   0  0  0  0  0  0  0  0  0  0  0  0
   -0.8212    6.0027    0.0000 N   0  0  0  0  0  0  0  0  0  0  0  0
   -0.1067    5.5902    0.0000 C   0  0  0  0  0  0  0  0  0  0  0  0
    0.6078    6.0027    0.0000 C   0  0  0  0  0  0  0  0  0  0  0  0
    1.3222    5.5902    0.0000 C   0  0  0  0  0  0  0  0  0  0  0  0
    1.3222    4.7652    0.0000 N   0  0  0  0  0  0  0  0  0  0  0  0
    0.6078    4.3527    0.0000 C   0  0  0  0  0  0  0  0  0  0  0  0
   -0.1067    4.7652    0.0000 C   0  0  0  0  0  0  0  0  0  0  0  0
    2.0367    4.3527    0.0000 C   0  0  0  0  0  0  0  0  0  0  0  0
    2.7512    4.7652    0.0000 O   0  0  0  0  0  0  0  0  0  0  0  0
    2.0367    3.5277    0.0000 N   0  0  0  0  0  0  0  0  0  0  0  0
    2.7041    3.0428    0.0000 C   0  0  0  0  0  0  0  0  0  0  0  0
    2.4492    2.2581    0.0000 C   0  0  0  0  0  0  0  0  0  0  0  0
    1.6242    2.2581    0.0000 C   0  0  0  0  0  0  0  0  0  0  0  0
    1.3693    3.0428    0.0000 C   0  0  0  0  0  0  0  0  0  0  0  0
   -1.5356    4.7652    0.0000 C   0  0  0  0  0  0  0  0  0  0  0  0
   -2.2501    4.3527    0.0000 C   0  0  0  0  0  0  0  0  0  0  0  0
  1  2  1  0  0  0  0
  2  3  2  0  0  0  0
  3  4  1  0  0  0  0
  4  5  2  0  0  0  0
  5  6  1  0  0  0  0
  6  7  2  0  0  0  0
  2  7  1  0  0  0  0
  4  8  1  0  0  0  0
  8  9  2  0  0  0  0
  8 10  1  0  0  0  0
 10 11  1  0  0  0  0
 11 12  2  0  0  0  0
 12 13  1  0  0  0  0
 13 14  1  0  0  0  0
 13 15  2  0  0  0  0
 15 16  1  0  0  0  0
 16 17  1  0  0  0  0
 17 18  1  0  0  0  0
 18 19  1  0  0  0  0
 19 20  1  0  0  0  0
 20 21  1  0  0  0  0
 21 22  1  0  0  0  0
 17 22  1  0  0  0  0
 20 23  1  0  0  0  0
 23 24  2  0  0  0  0
 23 25  1  0  0  0  0
 25 26  1  0  0  0  0
 26 27  1  0  0  0  0
 27 28  1  0  0  0  0
 28 29  1  0  0  0  0
 25 29  1  0  0  0  0
 15 30  1  0  0  0  0
 30 31  2  0  0  0  0
 11 31  1  0  0  0  0
M  END
> <ID>
CPD_2480

$$$$
CPD_2485
  Mrv1822 09091914012D          

 31 34  0  0  0  0            999 V2000
    4.2531   -1.0662    0.0000 N   0  0  0  0  0  0  0  0  0  0  0  0
    4.2531   -1.8912    0.0000 C   0  0  0  0  0  0  0  0  0  0  0  0
    4.9205   -2.3761    0.0000 C   0  0  0  0  0  0  0  0  0  0  0  0
    4.6656   -3.1607    0.0000 C   0  0  0  0  0  0  0  0  0  0  0  0
    3.8406   -3.1607    0.0000 N   0  0  0  0  0  0  0  0  0  0  0  0
    3.5856   -2.3761    0.0000 N   0  0  0  0  0  0  0  0  0  0  0  0
    5.1505   -3.8281    0.0000 C   0  0  0  0  0  0  0  0  0  0  0  0
    5.9755   -3.8281    0.0000 C   0  0  0  0  0  0  0  0  0  0  0  0
    6.2304   -4.6128    0.0000 C   0  0  0  0  0  0  0  0  0  0  0  0
    5.5630   -5.0977    0.0000 C   0  0  0  0  0  0  0  0  0  0  0  0
    4.8956   -4.6128    0.0000 S   0  0  0  0  0  0  0  0  0  0  0  0
    5.5630   -5.9227    0.0000 N   0  0  0  0  0  0  0  0  0  0  0  0
    6.2775   -6.3352    0.0000 C   0  0  0  0  0  0  0  0  0  0  0  0
    6.9919   -5.9227    0.0000 C   0  0  0  0  0  0  0  0  0  0  0  0
    7.7064   -6.3352    0.0000 C   0  0  0  0  0  0  0  0  0  0  0  0
    7.7064   -7.1602    0.0000 C   0  0  0  0  0  0  0  0  0  0  0  0
    8.4209   -7.5727    0.0000 C   0  0  0  0  0  0  0  0  0  0  0  0
    9.1354   -7.1602    0.0000 O   0  0  0  0  0  0  0  0  0  0  0  0
    8.4209   -8.3977    0.0000 O   0  0  0  0  0  0  0  0  0  0  0  0
    6.9919   -7.5727    0.0000 C   0  0  0  0  0  0  0  0  0  0  0  0
    6.9919   -8.3977    0.0000 Cl  0  0  0  0  0  0  0  0  0  0  0  0
    6.2775   -7.1602    0.0000 C   0  0  0  0  0  0  0  0  0  0  0  0
    4.8485   -6.3352    0.0000 S   0  0  0  0  0  0  0  0  0  0  0  0
    5.2610   -7.0497    0.0000 O   0  0  0  0  0  0  0  0  0  0  0  0
    4.4360   -5.6207    0.0000 O   0  0  0  0  0  0  0  0  0  0  0  0
    4.1341   -6.7477    0.0000 C   0  0  0  0  0  0  0  0  0  0  0  0
    4.1341   -7.5727    0.0000 C   0  0  0  0  0  0  0  0  0  0  0  0
    3.4196   -7.9852    0.0000 C   0  0  0  0  0  0  0  0  0  0  0  0
    2.7051   -7.5727    0.0000 C   0  0  0  0  0  0  0  0  0  0  0  0
    2.7051   -6.7477    0.0000 C   0  0  0  0  0  0  0  0  0  0  0  0
    3.4196   -6.3352    0.0000 C   0  0  0  0  0  0  0  0  0  0  0  0
  1  2  1  0  0  0  0
  2  3  2  0  0  0  0
  3  4  1  0  0  0  0
  4  5  2  0  0  0  0
  5  6  1  0  0  0  0
  2  6  1  0  0  0  0
  4  7  1  0  0  0  0
  7  8  2  0  0  0  0
  8  9  1  0  0  0  0
  9 10  2  0  0  0  0
 10 11  1  0  0  0  0
  7 11  1  0  0  0  0
 10 12  1  0  0  0  0
 12 13  1  0  0  0  0
 13 14  2  0  0  0  0
 14 15  1  0  0  0  0
 15 16  2  0  0  0  0
 16 17  1  0  0  0  0
 17 18  1  0  0  0  0
 17 19  2  0  0  0  0
 16 20  1  0  0  0  0
 20 21  1  0  0  0  0
 20 22  2  0  0  0  0
 13 22  1  0  0  0  0
 12 23  1  0  0  0  0
 23 24  2  0  0  0  0
 23 25  2  0  0  0  0
 23 26  1  0  0  0  0
 26 27  2  0  0  0  0
 27 28  1  0  0  0  0
 28 29  2  0  0  0  0
 29 30  1  0  0  0  0
 30 31  2  0  0  0  0
 26 31  1  0  0  0  0
M  END
> <ID>
CPD_2485

$$$$
CPD_2490
  Mrv1822 09091914012D          

 33 36  0  0  0  0            999 V2000
    2.1434   -1.2375    0.0000 N   0  0  0  0  0  0  0  0  0  0  0  0
    2.1434   -2.0625    0.0000 C   0  0  0  0  0  0  0  0  0  0  0  0
    2.8579   -2.4750    0.0000 C   0  0  0  0  0  0  0  0  0  0  0  0
    2.8579   -3.3000    0.0000 C   0  0  0  0  0  0  0  0  0  0  0  0
    2.1434   -3.7125    0.0000 N   0  0  0  0  0  0  0  0  0  0  0  0
    1.4289   -3.3000    0.0000 C   0  0  0  0  0  0  0  0  0  0  0  0
    1.4289   -2.4750    0.0000 N   0  0  0  0  0  0  0  0  0  0  0  0
    0.7145   -3.7125    0.0000 N   0  0  0  0  0  0  0  0  0  0  0  0
    0.7145   -4.5375    0.0000 C   0  0  0  0  0  0  0  0  0  0  0  0
    0.0000   -4.9500    0.0000 C   0  0  0  0  0  0  0  0  0  0  0  0
   -0.7145   -4.5375    0.0000 C   0  0  0  0  0  0  0  0  0  0  0  0
   -0.7145   -3.7125    0.0000 C   0  0  0  0  0  0  0  0  0  0  0  0
    0.0000   -3.3000    0.0000 C   0  0  0  0  0  0  0  0  0  0  0  0
    3.5724   -2.0625    0.0000 N   0  0  0  0  0  0  0  0  0  0  0  0
    3.5724   -1.2375    0.0000 C   0  0  0  0  0  0  0  0  0  0  0  0
    2.8579   -0.8250    0.0000 C   0  0  0  0  0  0  0  0  0  0  0  0
    2.8579   -0.0000    0.0000 C   0  0  0  0  0  0  0  0  0  0  0  0
    3.5724    0.4125    0.0000 C   0  0  0  0  0  0  0  0  0  0  0  0
    3.5724    1.2375    0.0000 C   0  0  0  0  0  0  0  0  0  0  0  0
    2.8579    1.6500    0.0000 O   0  0  0  0  0  0  0  0  0  0  0  0
    4.2868    1.6500    0.0000 O   0  0  0  0  0  0  0  0  0  0  0  0
    4.2868   -0.0000    0.0000 C   0  0  0  0  0  0  0  0  0  0  0  0
    5.0013    0.4125    0.0000 Cl  0  0  0  0  0  0  0  0  0  0  0  0
    4.2868   -0.8250    0.0000 C   0  0  0  0  0  0  0  0  0  0  0  0
    4.2868   -2.4750    0.0000 S   0  0  0  0  0  0  0  0  0  0  0  0
    4.6993   -1.7605    0.0000 O   0  0  0  0  0  0  0  0  0  0  0  0
    3.8743   -3.1895    0.0000 O   0  0  0  0  0  0  0  0  0  0  0  0
    5.0013   -2.8875    0.0000 C   0  0  0  0  0  0  0  0  0  0  0  0
    5.7158   -2.4750    0.0000 C   0  0  0  0  0  0  0  0  0  0  0  0
    6.4302   -2.8875    0.0000 C   0  0  0  0  0  0  0  0  0  0  0  0
    6.4302   -3.7125    0.0000 C   0  0  0  0  0  0  0  0  0  0  0  0
    5.7158   -4.1250    0.0000 C   0  0  0  0  0  0  0  0  0  0  0  0
    5.0013   -3.7125    0.0000 C   0  0  0  0  0  0  0  0  0  0  0  0
  1  2  1  0  0  0  0
  2  3  2  0  0  0  0
  3  4  1  0  0  0  0
  4  5  2  0  0  0  0
  5  6  1  0  0  0  0
  6  7  2  0  0  0  0
  2  7  1  0  0  0  0
  6  8  1  0  0  0  0
  8  9  1  0  0  0  0
  9 10  1  0  0  0  0
 10 11  1  0  0  0  0
 11 12  1  0  0  0  0
 12 13  1  0  0  0  0
  8 13  1  0  0  0  0
  3 14  1  0  0  0  0
 14 15  1  0  0  0  0
 15 16  2  0  0  0  0
 16 17  1  0  0  0  0
 17 18  2  0  0  0  0
 18 19  1  0  0  0  0
 19 20  1  0  0  0  0
 19 21  2  0  0  0  0
 18 22  1  0  0  0  0
 22 23  1  0  0  0  0
 22 24  2  0  0  0  0
 15 24  1  0  0  0  0
 14 25  1  0  0  0  0
 25 26  2  0  0  0  0
 25 27  2  0  0  0  0
 25 28  1  0  0  0  0
 28 29  2  0  0  0  0
 29 30  1  0  0  0  0
 30 31  2  0  0  0  0
 31 32  1  0  0  0  0
 32 33  2  0  0  0  0
 28 33  1  0  0  0  0
M  END
> <ID>
CPD_2490

$$$$
CPD_2495
  Mrv1822 09091914012D          

 23 26  0  0  1  0            999 V2000
    0.8517   -2.4835    0.0000 H   0  0  0  0  0  0  0  0  0  0  0  0
    0.8517   -1.6585    0.0000 C   0  0  1  0  0  0  0  0  0  0  0  0
    0.1163   -2.0322    0.0000 C   0  0  0  0  0  0  0  0  0  0  0  0
    0.5657   -1.2419    0.0000 C   0  0  2  0  0  0  0  0  0  0  0  0
   -0.2319   -1.0310    0.0000 H   0  0  0  0  0  0  0  0  0  0  0  0
    1.3012   -1.6156    0.0000 C   0  0  0  0  0  0  0  0  0  0  0  0
    2.0368   -1.2419    0.0000 C   0  0  2  0  0  0  0  0  0  0  0  0
    2.8344   -1.4529    0.0000 C   0  0  0  0  0  0  0  0  0  0  0  0
    1.5873   -2.0322    0.0000 C   0  0  0  0  0  0  0  0  0  0  0  0
    2.0368   -0.4945    0.0000 C   0  0  0  0  0  0  0  0  0  0  0  0
    1.3012   -0.1208    0.0000 C   0  0  2  0  0  0  0  0  0  0  0  0
    0.8517   -0.9111    0.0000 C   0  0  0  0  0  0  0  0  0  0  0  0
    0.5657   -0.4945    0.0000 C   0  0  0  0  0  0  0  0  0  0  0  0
    1.3012    0.7042    0.0000 N   0  0  0  0  0  0  0  0  0  0  0  0
    2.0156    1.1167    0.0000 C   0  0  0  0  0  0  0  0  0  0  0  0
    2.0156    1.9417    0.0000 C   0  0  0  0  0  0  0  0  0  0  0  0
    2.7301    2.3542    0.0000 C   0  0  0  0  0  0  0  0  0  0  0  0
    2.7301    3.1792    0.0000 O   0  0  0  0  0  0  0  0  0  0  0  0
    3.4446    1.9418    0.0000 C   0  0  0  0  0  0  0  0  0  0  0  0
    4.1590    2.3543    0.0000 Cl  0  0  0  0  0  0  0  0  0  0  0  0
    3.4446    1.1168    0.0000 C   0  0  0  0  0  0  0  0  0  0  0  0
    4.1591    0.7043    0.0000 Cl  0  0  0  0  0  0  0  0  0  0  0  0
    2.7301    0.7042    0.0000 C   0  0  0  0  0  0  0  0  0  0  0  0
  2  1  1  1  0  0  0
  2  3  1  0  0  0  0
  4  3  1  0  0  0  0
  4  5  1  6  0  0  0
  4  6  1  0  0  0  0
  7  6  1  0  0  0  0
  7  8  1  6  0  0  0
  7  9  1  0  0  0  0
  2  9  1  0  0  0  0
 11 13  1  0  0  0  0
 11 10  1  0  0  0  0
 11 12  1  0  0  0  0
  2 12  1  0  0  0  0
  7 10  1  0  0  0  0
  4 13  1  0  0  0  0
 11 14  1  1  0  0  0
 14 15  1  0  0  0  0
 15 16  2  0  0  0  0
 16 17  1  0  0  0  0
 17 18  1  0  0  0  0
 17 19  2  0  0  0  0
 19 20  1  0  0  0  0
 19 21  1  0  0  0  0
 21 22  1  0  0  0  0
 21 23  2  0  0  0  0
 15 23  1  0  0  0  0
M  END
> <ID>
CPD_2495

$$$$
CPD_2500
  Mrv1822 09091914012D          

 26 29  0  0  1  0            999 V2000
    0.8517   -2.4835    0.0000 H   0  0  0  0  0  0  0  0  0  0  0  0
    0.8517   -1.6585    0.0000 C   0  0  1  0  0  0  0  0  0  0  0  0
    0.1163   -2.0322    0.0000 C   0  0  0  0  0  0  0  0  0  0  0  0
    0.5657   -1.2419    0.0000 C   0  0  2  0  0  0  0  0  0  0  0  0
   -0.2319   -1.0310    0.0000 H   0  0  0  0  0  0  0  0  0  0  0  0
    1.3012   -1.6156    0.0000 C   0  0  0  0  0  0  0  0  0  0  0  0
    2.0368   -1.2419    0.0000 C   0  0  2  0  0  0  0  0  0  0  0  0
    2.8344   -1.4529    0.0000 C   0  0  0  0  0  0  0  0  0  0  0  0
    1.5873   -2.0322    0.0000 C   0  0  0  0  0  0  0  0  0  0  0  0
    2.0368   -0.4945    0.0000 C   0  0  0  0  0  0  0  0  0  0  0  0
    1.3012   -0.1208    0.0000 C   0  0  2  0  0  0  0  0  0  0  0  0
    0.8517   -0.9111    0.0000 C   0  0  0  0  0  0  0  0  0  0  0  0
    0.5657   -0.4945    0.0000 C   0  0  0  0  0  0  0  0  0  0  0  0
    1.3012    0.7042    0.0000 N   0  0  0  0  0  0  0  0  0  0  0  0
    0.5867    1.1167    0.0000 C   0  0  0  0  0  0  0  0  0  0  0  0
   -0.1278    0.7042    0.0000 C   0  0  0  0  0  0  0  0  0  0  0  0
   -0.8422    1.1166    0.0000 C   0  0  0  0  0  0  0  0  0  0  0  0
   -0.8423    1.9416    0.0000 C   0  0  0  0  0  0  0  0  0  0  0  0
   -0.1278    2.3542    0.0000 C   0  0  0  0  0  0  0  0  0  0  0  0
    0.5867    1.9417    0.0000 C   0  0  0  0  0  0  0  0  0  0  0  0
   -0.1278    3.1792    0.0000 S   0  0  0  0  0  0  0  0  0  0  0  0
    0.6972    3.1792    0.0000 O   0  0  0  0  0  0  0  0  0  0  0  0
   -0.9528    3.1791    0.0000 O   0  0  0  0  0  0  0  0  0  0  0  0
   -0.1279    4.0042    0.0000 C   0  0  0  0  0  0  0  0  0  0  0  0
   -0.8423    4.4166    0.0000 C   0  0  0  0  0  0  0  0  0  0  0  0
    0.5866    4.4167    0.0000 C   0  0  0  0  0  0  0  0  0  0  0  0
  2  1  1  1  0  0  0
  2  3  1  0  0  0  0
  4  3  1  0  0  0  0
  4  5  1  6  0  0  0
  4  6  1  0  0  0  0
  7  6  1  0  0  0  0
  7  8  1  6  0  0  0
  7  9  1  0  0  0  0
  2  9  1  0  0  0  0
 11 13  1  0  0  0  0
 11 10  1  0  0  0  0
 11 12  1  0  0  0  0
  2 12  1  0  0  0  0
  7 10  1  0  0  0  0
  4 13  1  0  0  0  0
 11 14  1  1  0  0  0
 14 15  1  0  0  0  0
 15 16  2  0  0  0  0
 16 17  1  0  0  0  0
 17 18  2  0  0  0  0
 18 19  1  0  0  0  0
 19 20  2  0  0  0  0
 15 20  1  0  0  0  0
 19 21  1  0  0  0  0
 21 22  2  0  0  0  0
 21 23  2  0  0  0  0
 21 24  1  0  0  0  0
 24 25  1  0  0  0  0
 24 26  1  0  0  0  0
M  END
> <ID>
CPD_2500

$$$$
CPD_2505
  Mrv1822 09091914012D          

 23 24  0  0  0  0            999 V2000
    0.0000   -1.6500    0.0000 C   0  0  0  0  0  0  0  0  0  0  0  0
    0.7145   -1.2375    0.0000 N   0  0  0  0  0  0  0  0  0  0  0  0
    1.4289   -1.6500    0.0000 C   0  0  0  0  0  0  0  0  0  0  0  0
    1.4289   -2.4750    0.0000 C   0  0  0  0  0  0  0  0  0  0  0  0
    2.0964   -2.9599    0.0000 N   0  0  0  0  0  0  0  0  0  0  0  0
    1.8414   -3.7445    0.0000 N   0  0  0  0  0  0  0  0  0  0  0  0
    2.3264   -4.4120    0.0000 C   0  0  0  0  0  0  0  0  0  0  0  0
    1.0164   -3.7445    0.0000 C   0  0  0  0  0  0  0  0  0  0  0  0
    0.7615   -2.9599    0.0000 C   0  0  0  0  0  0  0  0  0  0  0  0
   -0.0231   -2.7050    0.0000 Cl  0  0  0  0  0  0  0  0  0  0  0  0
    0.7145   -0.4125    0.0000 C   0  0  0  0  0  0  0  0  0  0  0  0
    0.0000    0.0000    0.0000 C   0  0  0  0  0  0  0  0  0  0  0  0
    0.0000    0.8250    0.0000 C   0  0  0  0  0  0  0  0  0  0  0  0
    0.7145    1.2375    0.0000 C   0  0  0  0  0  0  0  0  0  0  0  0
    0.7145    2.0625    0.0000 C   0  0  0  0  0  0  0  0  0  0  0  0
    1.4289    0.8250    0.0000 C   0  0  0  0  0  0  0  0  0  0  0  0
    1.4289    0.0000    0.0000 C   0  0  0  0  0  0  0  0  0  0  0  0
    2.1434    1.2375    0.0000 C   0  0  0  0  0  0  0  0  0  0  0  0
    2.8579    1.6500    0.0000 F   0  0  0  0  0  0  0  0  0  0  0  0
    2.5559    0.5230    0.0000 F   0  0  0  0  0  0  0  0  0  0  0  0
    1.7309    1.9520    0.0000 F   0  0  0  0  0  0  0  0  0  0  0  0
   -0.7145   -0.4125    0.0000 C   0  0  0  0  0  0  0  0  0  0  0  0
   -1.4289   -0.8250    0.0000 N   0  0  0  0  0  0  0  0  0  0  0  0
  1  2  1  0  0  0  0
  2  3  1  0  0  0  0
  3  4  1  0  0  0  0
  4  5  2  0  0  0  0
  5  6  1  0  0  0  0
  6  7  1  0  0  0  0
  6  8  1  0  0  0  0
  8  9  2  0  0  0  0
  4  9  1  0  0  0  0
  9 10  1  0  0  0  0
  2 11  1  0  0  0  0
 11 12  2  0  0  0  0
 12 13  1  0  0  0  0
 13 14  2  0  0  0  0
 14 15  1  0  0  0  0
 14 16  1  0  0  0  0
 16 17  2  0  0  0  0
 11 17  1  0  0  0  0
 16 18  1  0  0  0  0
 18 19  1  0  0  0  0
 18 20  1  0  0  0  0
 18 21  1  0  0  0  0
 12 22  1  0  0  0  0
 22 23  3  0  0  0  0
M  END
> <ID>
CPD_2505

$$$$
CPD_2510
  Mrv1822 09091914012D          

 28 30  0  0  0  0            999 V2000
   -7.8592    1.8161    0.0000 C   0  0  0  0  0  0  0  0  0  0  0  0
   -7.1447    2.2286    0.0000 C   0  0  0  0  0  0  0  0  0  0  0  0
   -7.1447    3.0536    0.0000 O   0  0  0  0  0  0  0  0  0  0  0  0
   -6.4302    3.4661    0.0000 C   0  0  0  0  0  0  0  0  0  0  0  0
   -6.4302    4.2911    0.0000 C   0  0  0  0  0  0  0  0  0  0  0  0
   -5.7158    4.7036    0.0000 C   0  0  0  0  0  0  0  0  0  0  0  0
   -5.0013    4.2911    0.0000 C   0  0  0  0  0  0  0  0  0  0  0  0
   -4.2868    4.7036    0.0000 N   0  0  0  0  0  0  0  0  0  0  0  0
   -3.5724    4.2911    0.0000 C   0  0  0  0  0  0  0  0  0  0  0  0
   -2.8579    4.7036    0.0000 O   0  0  0  0  0  0  0  0  0  0  0  0
   -3.5724    3.4661    0.0000 C   0  0  0  0  0  0  0  0  0  0  0  0
   -2.8579    3.0536    0.0000 C   0  0  0  0  0  0  0  0  0  0  0  0
   -2.8579    2.2286    0.0000 C   0  0  0  0  0  0  0  0  0  0  0  0
   -3.5724    1.8161    0.0000 C   0  0  0  0  0  0  0  0  0  0  0  0
   -4.2868    2.2286    0.0000 C   0  0  0  0  0  0  0  0  0  0  0  0
   -4.2868    3.0536    0.0000 C   0  0  0  0  0  0  0  0  0  0  0  0
   -2.1434    3.4661    0.0000 N   0  0  0  0  0  0  0  0  0  0  0  0
   -2.1434    4.2911    0.0000 C   0  0  0  0  0  0  0  0  0  0  0  0
   -1.4289    3.0536    0.0000 C   0  0  0  0  0  0  0  0  0  0  0  0
   -1.4289    2.2286    0.0000 C   0  0  0  0  0  0  0  0  0  0  0  0
   -2.0964    1.7437    0.0000 N   0  0  0  0  0  0  0  0  0  0  0  0
   -1.8414    0.9590    0.0000 N   0  0  0  0  0  0  0  0  0  0  0  0
   -2.3264    0.2916    0.0000 C   0  0  0  0  0  0  0  0  0  0  0  0
   -1.0164    0.9590    0.0000 C   0  0  0  0  0  0  0  0  0  0  0  0
   -0.7615    1.7437    0.0000 C   0  0  0  0  0  0  0  0  0  0  0  0
    0.0231    1.9986    0.0000 Cl  0  0  0  0  0  0  0  0  0  0  0  0
   -5.0013    3.4661    0.0000 C   0  0  0  0  0  0  0  0  0  0  0  0
   -5.7158    3.0536    0.0000 C   0  0  0  0  0  0  0  0  0  0  0  0
  1  2  1  0  0  0  0
  2  3  1  0  0  0  0
  3  4  1  0  0  0  0
  4  5  2  0  0  0  0
  5  6  1  0  0  0  0
  6  7  2  0  0  0  0
  7  8  1  0  0  0  0
  8  9  1  0  0  0  0
  9 10  2  0  0  0  0
  9 11  1  0  0  0  0
 11 12  2  0  0  0  0
 12 13  1  0  0  0  0
 13 14  2  0  0  0  0
 14 15  1  0  0  0  0
 15 16  2  0  0  0  0
 11 16  1  0  0  0  0
 12 17  1  0  0  0  0
 17 18  1  0  0  0  0
 17 19  1  0  0  0  0
 19 20  1  0  0  0  0
 20 21  2  0  0  0  0
 21 22  1  0  0  0  0
 22 23  1  0  0  0  0
 22 24  1  0  0  0  0
 24 25  2  0  0  0  0
 20 25  1  0  0  0  0
 25 26  1  0  0  0  0
  7 27  1  0  0  0  0
 27 28  2  0  0  0  0
  4 28  1  0  0  0  0
M  END
> <ID>
CPD_2510

$$$$
CPD_2515
  Mrv1822 09091914012D          

 18 19  0  0  0  0            999 V2000
    0.0000   -1.6500    0.0000 C   0  0  0  0  0  0  0  0  0  0  0  0
    0.7145   -1.2375    0.0000 N   0  0  0  0  0  0  0  0  0  0  0  0
    1.4289   -1.6500    0.0000 C   0  0  0  0  0  0  0  0  0  0  0  0
    1.4289   -2.4750    0.0000 C   0  0  0  0  0  0  0  0  0  0  0  0
    2.0964   -2.9599    0.0000 N   0  0  0  0  0  0  0  0  0  0  0  0
    1.8414   -3.7445    0.0000 N   0  0  0  0  0  0  0  0  0  0  0  0
    2.3264   -4.4120    0.0000 C   0  0  0  0  0  0  0  0  0  0  0  0
    1.0164   -3.7445    0.0000 C   0  0  0  0  0  0  0  0  0  0  0  0
    0.7615   -2.9599    0.0000 C   0  0  0  0  0  0  0  0  0  0  0  0
   -0.0231   -2.7050    0.0000 Cl  0  0  0  0  0  0  0  0  0  0  0  0
    0.7145   -0.4125    0.0000 C   0  0  0  0  0  0  0  0  0  0  0  0
    0.0000    0.0000    0.0000 N   0  0  0  0  0  0  0  0  0  0  0  0
    0.0000    0.8250    0.0000 C   0  0  0  0  0  0  0  0  0  0  0  0
    0.7145    1.2375    0.0000 C   0  0  0  0  0  0  0  0  0  0  0  0
    0.7145    2.0625    0.0000 C   0  0  0  0  0  0  0  0  0  0  0  0
    0.0000    2.4750    0.0000 O   0  0  0  0  0  0  0  0  0  0  0  0
    1.4289    0.8250    0.0000 C   0  0  0  0  0  0  0  0  0  0  0  0
    1.4289    0.0000    0.0000 C   0  0  0  0  0  0  0  0  0  0  0  0
  1  2  1  0  0  0  0
  2  3  1  0  0  0  0
  3  4  1  0  0  0  0
  4  5  2  0  0  0  0
  5  6  1  0  0  0  0
  6  7  1  0  0  0  0
  6  8  1  0  0  0  0
  8  9  2  0  0  0  0
  4  9  1  0  0  0  0
  9 10  1  0  0  0  0
  2 11  1  0  0  0  0
 11 12  2  0  0  0  0
 12 13  1  0  0  0  0
 13 14  2  0  0  0  0
 14 15  1  0  0  0  0
 15 16  1  0  0  0  0
 14 17  1  0  0  0  0
 17 18  2  0  0  0  0
 11 18  1  0  0  0  0
M  END
> <ID>
CPD_2515

$$$$
CPD_2520
  Mrv1822 09091914012D          

 24 26  0  0  0  0            999 V2000
   -1.3862    3.2151    0.0000 C   0  0  0  0  0  0  0  0  0  0  0  0
   -0.8559    2.5831    0.0000 N   0  0  0  0  0  0  0  0  0  0  0  0
   -0.0434    2.7264    0.0000 C   0  0  0  0  0  0  0  0  0  0  0  0
    0.4869    2.0944    0.0000 C   0  0  0  0  0  0  0  0  0  0  0  0
    0.2047    1.3192    0.0000 C   0  0  0  0  0  0  0  0  0  0  0  0
   -0.6078    1.1759    0.0000 C   0  0  0  0  0  0  0  0  0  0  0  0
   -0.3256    0.4006    0.0000 C   0  0  0  0  0  0  0  0  0  0  0  0
   -1.1381    1.8079    0.0000 C   0  0  0  0  0  0  0  0  0  0  0  0
   -1.3222    0.7634    0.0000 N   0  0  0  0  0  0  0  0  0  0  0  0
   -2.0367    1.1759    0.0000 C   0  0  0  0  0  0  0  0  0  0  0  0
   -2.7512    0.7634    0.0000 C   0  0  0  0  0  0  0  0  0  0  0  0
   -2.7512   -0.0616    0.0000 N   0  0  0  0  0  0  0  0  0  0  0  0
   -2.0367   -0.4741    0.0000 C   0  0  0  0  0  0  0  0  0  0  0  0
   -1.3222   -0.0616    0.0000 O   0  0  0  0  0  0  0  0  0  0  0  0
   -2.0367   -1.2991    0.0000 C   0  0  0  0  0  0  0  0  0  0  0  0
   -1.3693   -1.7840    0.0000 C   0  0  0  0  0  0  0  0  0  0  0  0
   -0.5846   -1.5291    0.0000 N   0  0  0  0  0  0  0  0  0  0  0  0
   -1.6242   -2.5687    0.0000 S   0  0  0  0  0  0  0  0  0  0  0  0
   -2.4492   -2.5687    0.0000 C   0  0  0  0  0  0  0  0  0  0  0  0
   -2.7041   -1.7840    0.0000 C   0  0  0  0  0  0  0  0  0  0  0  0
   -3.4656    1.1759    0.0000 C   0  0  0  0  0  0  0  0  0  0  0  0
   -3.4656    2.0009    0.0000 C   0  0  0  0  0  0  0  0  0  0  0  0
   -2.7512    2.4134    0.0000 C   0  0  0  0  0  0  0  0  0  0  0  0
   -2.0367    2.0009    0.0000 C   0  0  0  0  0  0  0  0  0  0  0  0
  1  2  1  0  0  0  0
  2  3  1  0  0  0  0
  3  4  1  0  0  0  0
  4  5  1  0  0  0  0
  5  6  1  0  0  0  0
  6  7  1  0  0  0  0
  6  8  1  0  0  0  0
  2  8  1  0  0  0  0
  6  9  1  0  0  0  0
  9 10  1  0  0  0  0
 10 11  2  0  0  0  0
 11 12  1  0  0  0  0
 12 13  1  0  0  0  0
 13 14  2  0  0  0  0
 13 15  1  0  0  0  0
 15 16  2  0  0  0  0
 16 17  1  0  0  0  0
 16 18  1  0  0  0  0
 18 19  1  0  0  0  0
 19 20  2  0  0  0  0
 15 20  1  0  0  0  0
 11 21  1  0  0  0  0
 21 22  2  0  0  0  0
 22 23  1  0  0  0  0
 23 24  2  0  0  0  0
 10 24  1  0  0  0  0
M  END
> <ID>
CPD_2520

$$$$
CPD_2525
  Mrv1822 09091914012D          

 22 23  0  0  0  0            999 V2000
   -2.1552    2.1295    0.0000 C   0  0  0  0  0  0  0  0  0  0  0  0
   -2.1552    1.3045    0.0000 C   0  0  0  0  0  0  0  0  0  0  0  0
   -1.4408    0.8920    0.0000 O   0  0  0  0  0  0  0  0  0  0  0  0
   -1.4408    0.0670    0.0000 C   0  0  0  0  0  0  0  0  0  0  0  0
   -0.7263   -0.3455    0.0000 C   0  0  0  0  0  0  0  0  0  0  0  0
   -0.0118    0.0670    0.0000 F   0  0  0  0  0  0  0  0  0  0  0  0
   -0.7263   -1.1705    0.0000 C   0  0  0  0  0  0  0  0  0  0  0  0
   -0.0118   -1.5830    0.0000 C   0  0  0  0  0  0  0  0  0  0  0  0
   -0.0118   -2.4080    0.0000 C   0  0  0  0  0  0  0  0  0  0  0  0
   -0.0118   -3.2330    0.0000 N   0  0  0  0  0  0  0  0  0  0  0  0
   -1.4408   -1.5830    0.0000 C   0  0  0  0  0  0  0  0  0  0  0  0
   -2.1552   -1.1705    0.0000 C   0  0  0  0  0  0  0  0  0  0  0  0
   -2.1552   -0.3455    0.0000 C   0  0  0  0  0  0  0  0  0  0  0  0
   -2.8697    0.0670    0.0000 N   0  0  0  0  0  0  0  0  0  0  0  0
   -3.5842   -0.3455    0.0000 C   0  0  0  0  0  0  0  0  0  0  0  0
   -3.8663    0.4298    0.0000 C   0  0  0  0  0  0  0  0  0  0  0  0
   -3.0539   -0.9775    0.0000 C   0  0  0  0  0  0  0  0  0  0  0  0
   -3.3360   -1.7527    0.0000 C   0  0  0  0  0  0  0  0  0  0  0  0
   -4.1485   -1.8960    0.0000 C   0  0  0  0  0  0  0  0  0  0  0  0
   -4.6788   -1.2640    0.0000 N   0  0  0  0  0  0  0  0  0  0  0  0
   -5.4913   -1.4072    0.0000 C   0  0  0  0  0  0  0  0  0  0  0  0
   -4.3966   -0.4887    0.0000 C   0  0  0  0  0  0  0  0  0  0  0  0
  1  2  1  0  0  0  0
  2  3  1  0  0  0  0
  3  4  1  0  0  0  0
  4  5  2  0  0  0  0
  5  6  1  0  0  0  0
  5  7  1  0  0  0  0
  7  8  1  0  0  0  0
  8  9  1  0  0  0  0
  9 10  3  0  0  0  0
  7 11  2  0  0  0  0
 11 12  1  0  0  0  0
 12 13  2  0  0  0  0
  4 13  1  0  0  0  0
 13 14  1  0  0  0  0
 14 15  1  0  0  0  0
 15 16  1  0  0  0  0
 15 17  1  0  0  0  0
 17 18  1  0  0  0  0
 18 19  1  0  0  0  0
 19 20  1  0  0  0  0
 20 21  1  0  0  0  0
 20 22  1  0  0  0  0
 15 22  1  0  0  0  0
M  END
> <ID>
CPD_2525

$$$$
CPD_2530
  Mrv1822 09091914012D          

 21 22  0  0  0  0            999 V2000
    1.4289   -0.8250    0.0000 C   0  0  0  0  0  0  0  0  0  0  0  0
    1.4289   -1.6500    0.0000 C   0  0  0  0  0  0  0  0  0  0  0  0
    0.6039   -1.6500    0.0000 C   0  0  0  0  0  0  0  0  0  0  0  0
    2.2539   -1.6500    0.0000 C   0  0  0  0  0  0  0  0  0  0  0  0
    1.4289   -2.4750    0.0000 C   0  0  0  0  0  0  0  0  0  0  0  0
    2.0964   -2.9599    0.0000 C   0  0  0  0  0  0  0  0  0  0  0  0
    1.8414   -3.7445    0.0000 C   0  0  0  0  0  0  0  0  0  0  0  0
    2.3264   -4.4120    0.0000 C   0  0  0  0  0  0  0  0  0  0  0  0
    3.1468   -4.3257    0.0000 N   0  0  0  0  0  0  0  0  0  0  0  0
    3.6318   -4.9932    0.0000 C   0  0  0  0  0  0  0  0  0  0  0  0
    4.4522   -4.9070    0.0000 C   0  0  0  0  0  0  0  0  0  0  0  0
    4.9372   -5.5744    0.0000 C   0  0  0  0  0  0  0  0  0  0  0  0
    5.7577   -5.4882    0.0000 C   0  0  0  0  0  0  0  0  0  0  0  0
    6.0932   -4.7345    0.0000 O   0  0  0  0  0  0  0  0  0  0  0  0
    6.2426   -6.1556    0.0000 O   0  0  0  0  0  0  0  0  0  0  0  0
    4.6016   -6.3281    0.0000 C   0  0  0  0  0  0  0  0  0  0  0  0
    5.0865   -6.9955    0.0000 N   0  0  0  0  0  0  0  0  0  0  0  0
    3.7811   -6.4143    0.0000 C   0  0  0  0  0  0  0  0  0  0  0  0
    3.2962   -5.7469    0.0000 C   0  0  0  0  0  0  0  0  0  0  0  0
    1.0164   -3.7445    0.0000 N   0  0  0  0  0  0  0  0  0  0  0  0
    0.7615   -2.9599    0.0000 N   0  0  0  0  0  0  0  0  0  0  0  0
  1  2  1  0  0  0  0
  2  3  1  0  0  0  0
  2  4  1  0  0  0  0
  2  5  1  0  0  0  0
  5  6  2  0  0  0  0
  6  7  1  0  0  0  0
  7  8  1  0  0  0  0
  8  9  1  0  0  0  0
  9 10  1  0  0  0  0
 10 11  2  0  0  0  0
 11 12  1  0  0  0  0
 12 13  1  0  0  0  0
 13 14  1  0  0  0  0
 13 15  2  0  0  0  0
 12 16  2  0  0  0  0
 16 17  1  0  0  0  0
 16 18  1  0  0  0  0
 18 19  2  0  0  0  0
 10 19  1  0  0  0  0
  7 20  2  0  0  0  0
 20 21  1  0  0  0  0
  5 21  1  0  0  0  0
M  END
> <ID>
CPD_2530

$$$$
CPD_2535
  Mrv1822 09091914012D          

 26 28  0  0  0  0            999 V2000
   -3.1034    0.7310    0.0000 C   0  0  0  0  0  0  0  0  0  0  0  0
   -2.6909    0.0165    0.0000 C   0  0  0  0  0  0  0  0  0  0  0  0
   -1.8659    0.0165    0.0000 O   0  0  0  0  0  0  0  0  0  0  0  0
   -1.4534   -0.6979    0.0000 C   0  0  0  0  0  0  0  0  0  0  0  0
   -1.8659   -1.4124    0.0000 O   0  0  0  0  0  0  0  0  0  0  0  0
   -0.6284   -0.6979    0.0000 C   0  0  0  0  0  0  0  0  0  0  0  0
   -0.1435   -1.3654    0.0000 C   0  0  0  0  0  0  0  0  0  0  0  0
   -0.3984   -2.1500    0.0000 N   0  0  0  0  0  0  0  0  0  0  0  0
    0.1536   -2.7631    0.0000 C   0  0  0  0  0  0  0  0  0  0  0  0
   -0.1014   -3.5477    0.0000 C   0  0  0  0  0  0  0  0  0  0  0  0
   -0.8860   -3.8027    0.0000 N   0  0  0  0  0  0  0  0  0  0  0  0
   -0.8860   -4.6277    0.0000 N   0  0  0  0  0  0  0  0  0  0  0  0
   -0.1014   -4.8826    0.0000 C   0  0  0  0  0  0  0  0  0  0  0  0
    0.3836   -4.2152    0.0000 C   0  0  0  0  0  0  0  0  0  0  0  0
    0.1536   -5.6672    0.0000 C   0  0  0  0  0  0  0  0  0  0  0  0
    0.4085   -6.4518    0.0000 C   0  0  0  0  0  0  0  0  0  0  0  0
   -0.6310   -5.9222    0.0000 C   0  0  0  0  0  0  0  0  0  0  0  0
    0.9382   -5.4123    0.0000 C   0  0  0  0  0  0  0  0  0  0  0  0
    0.6411   -1.1104    0.0000 N   0  0  0  0  0  0  0  0  0  0  0  0
    0.6411   -0.2854    0.0000 C   0  0  0  0  0  0  0  0  0  0  0  0
    1.3556    0.1271    0.0000 C   0  0  0  0  0  0  0  0  0  0  0  0
    2.0701   -0.2854    0.0000 C   0  0  0  0  0  0  0  0  0  0  0  0
    2.0701   -1.1104    0.0000 C   0  0  0  0  0  0  0  0  0  0  0  0
    1.3556   -1.5229    0.0000 C   0  0  0  0  0  0  0  0  0  0  0  0
    1.3556   -2.3479    0.0000 C   0  0  0  0  0  0  0  0  0  0  0  0
   -0.1435   -0.0305    0.0000 N   0  0  0  0  0  0  0  0  0  0  0  0
  1  2  1  0  0  0  0
  2  3  1  0  0  0  0
  3  4  1  0  0  0  0
  4  5  2  0  0  0  0
  4  6  1  0  0  0  0
  6  7  2  0  0  0  0
  7  8  1  0  0  0  0
  8  9  1  0  0  0  0
  9 10  1  0  0  0  0
 10 11  2  0  0  0  0
 11 12  1  0  0  0  0
 12 13  1  0  0  0  0
 13 14  2  0  0  0  0
 10 14  1  0  0  0  0
 13 15  1  0  0  0  0
 15 16  1  0  0  0  0
 15 17  1  0  0  0  0
 15 18  1  0  0  0  0
  7 19  1  0  0  0  0
 19 20  1  0  0  0  0
 20 21  1  0  0  0  0
 21 22  2  0  0  0  0
 22 23  1  0  0  0  0
 23 24  2  0  0  0  0
 19 24  1  0  0  0  0
 24 25  1  0  0  0  0
 20 26  2  0  0  0  0
  6 26  1  0  0  0  0
M  END
> <ID>
CPD_2535

$$$$
CPD_2540
  Mrv1822 09091914012D          

 33 36  0  0  0  0            999 V2000
    1.8207   -0.8389    0.0000 C   0  0  0  0  0  0  0  0  0  0  0  0
    1.0361   -1.0938    0.0000 O   0  0  0  0  0  0  0  0  0  0  0  0
    0.4230   -0.5418    0.0000 C   0  0  0  0  0  0  0  0  0  0  0  0
   -0.3616   -0.7968    0.0000 C   0  0  0  0  0  0  0  0  0  0  0  0
   -0.9747   -0.2447    0.0000 C   0  0  0  0  0  0  0  0  0  0  0  0
   -0.8032    0.5623    0.0000 C   0  0  0  0  0  0  0  0  0  0  0  0
   -0.0185    0.8172    0.0000 C   0  0  0  0  0  0  0  0  0  0  0  0
    0.5946    0.2652    0.0000 C   0  0  0  0  0  0  0  0  0  0  0  0
   -1.4163    1.1143    0.0000 N   0  0  0  0  0  0  0  0  0  0  0  0
   -1.0038    1.8288    0.0000 C   0  0  0  0  0  0  0  0  0  0  0  0
   -0.1788    1.8288    0.0000 C   0  0  0  0  0  0  0  0  0  0  0  0
    0.2337    2.5432    0.0000 C   0  0  0  0  0  0  0  0  0  0  0  0
   -0.1788    3.2577    0.0000 C   0  0  0  0  0  0  0  0  0  0  0  0
   -1.0038    3.2577    0.0000 C   0  0  0  0  0  0  0  0  0  0  0  0
   -1.4163    2.5432    0.0000 C   0  0  0  0  0  0  0  0  0  0  0  0
   -2.2413    2.5432    0.0000 C   0  0  0  0  0  0  0  0  0  0  0  0
   -2.6538    1.8288    0.0000 C   0  0  0  0  0  0  0  0  0  0  0  0
   -3.4788    1.8288    0.0000 C   0  0  0  0  0  0  0  0  0  0  0  0
   -3.8913    2.5432    0.0000 C   0  0  0  0  0  0  0  0  0  0  0  0
   -3.4788    3.2577    0.0000 C   0  0  0  0  0  0  0  0  0  0  0  0
   -2.6538    3.2577    0.0000 C   0  0  0  0  0  0  0  0  0  0  0  0
   -2.2413    3.9722    0.0000 N   0  0  0  0  0  0  0  0  0  0  0  0
   -2.2413    1.1143    0.0000 S   0  0  0  0  0  0  0  0  0  0  0  0
   -2.2413    1.9393    0.0000 O   0  0  0  0  0  0  0  0  0  0  0  0
   -3.0663    1.1143    0.0000 O   0  0  0  0  0  0  0  0  0  0  0  0
   -2.2413    0.2893    0.0000 C   0  0  0  0  0  0  0  0  0  0  0  0
   -2.9087   -0.1956    0.0000 C   0  0  0  0  0  0  0  0  0  0  0  0
   -2.6538   -0.9803    0.0000 S   0  0  0  0  0  0  0  0  0  0  0  0
   -1.8288   -0.9803    0.0000 C   0  0  0  0  0  0  0  0  0  0  0  0
   -1.5738   -0.1956    0.0000 C   0  0  0  0  0  0  0  0  0  0  0  0
   -3.6933    0.0593    0.0000 C   0  0  0  0  0  0  0  0  0  0  0  0
   -3.8648    0.8663    0.0000 O   0  0  0  0  0  0  0  0  0  0  0  0
   -4.3064   -0.4927    0.0000 O   0  0  0  0  0  0  0  0  0  0  0  0
  1  2  1  0  0  0  0
  2  3  1  0  0  0  0
  3  4  2  0  0  0  0
  4  5  1  0  0  0  0
  5  6  2  0  0  0  0
  6  7  1  0  0  0  0
  7  8  2  0  0  0  0
  3  8  1  0  0  0  0
  6  9  1  0  0  0  0
  9 10  1  0  0  0  0
 10 11  2  0  0  0  0
 11 12  1  0  0  0  0
 12 13  2  0  0  0  0
 13 14  1  0  0  0  0
 14 15  2  0  0  0  0
 10 15  1  0  0  0  0
 15 16  1  0  0  0  0
 16 17  2  0  0  0  0
 17 18  1  0  0  0  0
 18 19  2  0  0  0  0
 19 20  1  0  0  0  0
 20 21  2  0  0  0  0
 16 21  1  0  0  0  0
 21 22  1  0  0  0  0
  9 23  1  0  0  0  0
 23 24  2  0  0  0  0
 23 25  2  0  0  0  0
 23 26  1  0  0  0  0
 26 27  2  0  0  0  0
 27 28  1  0  0  0  0
 28 29  1  0  0  0  0
 29 30  2  0  0  0  0
 26 30  1  0  0  0  0
 27 31  1  0  0  0  0
 31 32  1  0  0  0  0
 31 33  2  0  0  0  0
M  END
> <ID>
CPD_2540

$$$$
CPD_2545
  Mrv1822 09091914012D          

 32 35  0  0  0  0            999 V2000
   -2.8579   -0.8250    0.0000 C   0  0  0  0  0  0  0  0  0  0  0  0
   -2.8579   -1.6500    0.0000 C   0  0  0  0  0  0  0  0  0  0  0  0
   -2.1434   -2.0625    0.0000 N   0  0  0  0  0  0  0  0  0  0  0  0
   -2.1434   -2.8875    0.0000 C   0  0  0  0  0  0  0  0  0  0  0  0
   -1.4289   -3.3000    0.0000 C   0  0  0  0  0  0  0  0  0  0  0  0
   -1.4289   -4.1250    0.0000 C   0  0  0  0  0  0  0  0  0  0  0  0
   -2.1434   -4.5375    0.0000 C   0  0  0  0  0  0  0  0  0  0  0  0
   -2.1434   -5.3625    0.0000 C   0  0  0  0  0  0  0  0  0  0  0  0
   -2.8579   -5.7750    0.0000 N   0  0  0  0  0  0  0  0  0  0  0  0
   -2.9441   -6.5955    0.0000 C   0  0  0  0  0  0  0  0  0  0  0  0
   -3.7511   -6.7670    0.0000 C   0  0  0  0  0  0  0  0  0  0  0  0
   -4.1636   -6.0525    0.0000 N   0  0  0  0  0  0  0  0  0  0  0  0
   -3.6116   -5.4394    0.0000 C   0  0  0  0  0  0  0  0  0  0  0  0
   -2.8579   -4.1250    0.0000 C   0  0  0  0  0  0  0  0  0  0  0  0
   -2.8579   -3.3000    0.0000 C   0  0  0  0  0  0  0  0  0  0  0  0
   -1.4289   -1.6500    0.0000 S   0  0  0  0  0  0  0  0  0  0  0  0
   -1.0164   -2.3645    0.0000 O   0  0  0  0  0  0  0  0  0  0  0  0
   -1.8414   -0.9355    0.0000 O   0  0  0  0  0  0  0  0  0  0  0  0
   -0.7145   -1.2375    0.0000 C   0  0  0  0  0  0  0  0  0  0  0  0
    0.0000   -1.6500    0.0000 C   0  0  0  0  0  0  0  0  0  0  0  0
    0.7145   -1.2375    0.0000 C   0  0  0  0  0  0  0  0  0  0  0  0
    0.7145   -0.4125    0.0000 C   0  0  0  0  0  0  0  0  0  0  0  0
    0.0000   -0.0000    0.0000 C   0  0  0  0  0  0  0  0  0  0  0  0
   -0.7145   -0.4125    0.0000 C   0  0  0  0  0  0  0  0  0  0  0  0
    1.4289   -0.0000    0.0000 N   0  0  0  0  0  0  0  0  0  0  0  0
    1.4289    0.8250    0.0000 C   0  0  0  0  0  0  0  0  0  0  0  0
    2.1434   -0.4125    0.0000 C   0  0  0  0  0  0  0  0  0  0  0  0
    2.8579   -0.0000    0.0000 O   0  0  0  0  0  0  0  0  0  0  0  0
    2.1434   -1.2375    0.0000 N   0  0  0  0  0  0  0  0  0  0  0  0
    2.8579   -1.6500    0.0000 C   0  0  0  0  0  0  0  0  0  0  0  0
    1.4289   -1.6500    0.0000 C   0  0  0  0  0  0  0  0  0  0  0  0
    1.4289   -2.4750    0.0000 O   0  0  0  0  0  0  0  0  0  0  0  0
  1  2  1  0  0  0  0
  2  3  1  0  0  0  0
  3  4  1  0  0  0  0
  4  5  2  0  0  0  0
  5  6  1  0  0  0  0
  6  7  2  0  0  0  0
  7  8  1  0  0  0  0
  8  9  1  0  0  0  0
  9 10  1  0  0  0  0
 10 11  2  0  0  0  0
 11 12  1  0  0  0  0
 12 13  2  0  0  0  0
  9 13  1  0  0  0  0
  7 14  1  0  0  0  0
 14 15  2  0  0  0  0
  4 15  1  0  0  0  0
  3 16  1  0  0  0  0
 16 17  2  0  0  0  0
 16 18  2  0  0  0  0
 16 19  1  0  0  0  0
 19 20  2  0  0  0  0
 20 21  1  0  0  0  0
 21 22  2  0  0  0  0
 22 23  1  0  0  0  0
 23 24  2  0  0  0  0
 19 24  1  0  0  0  0
 22 25  1  0  0  0  0
 25 26  1  0  0  0  0
 25 27  1  0  0  0  0
 27 28  2  0  0  0  0
 27 29  1  0  0  0  0
 29 30  1  0  0  0  0
 29 31  1  0  0  0  0
 21 31  1  0  0  0  0
 31 32  2  0  0  0  0
M  END
> <ID>
CPD_2545

$$$$
CPD_2550
  Mrv1822 09091914012D          

 31 34  0  0  0  0            999 V2000
   -3.5724   -2.0625    0.0000 C   0  0  0  0  0  0  0  0  0  0  0  0
   -2.8579   -1.6500    0.0000 C   0  0  0  0  0  0  0  0  0  0  0  0
   -2.1434   -2.0625    0.0000 N   0  0  0  0  0  0  0  0  0  0  0  0
   -2.1434   -2.8875    0.0000 C   0  0  0  0  0  0  0  0  0  0  0  0
   -1.4289   -3.3000    0.0000 C   0  0  0  0  0  0  0  0  0  0  0  0
   -0.7145   -2.8875    0.0000 O   0  0  0  0  0  0  0  0  0  0  0  0
    0.0000   -3.3000    0.0000 C   0  0  0  0  0  0  0  0  0  0  0  0
   -1.4289   -4.1250    0.0000 C   0  0  0  0  0  0  0  0  0  0  0  0
   -2.1434   -4.5375    0.0000 C   0  0  0  0  0  0  0  0  0  0  0  0
   -2.3149   -5.3445    0.0000 N   0  0  0  0  0  0  0  0  0  0  0  0
   -3.1354   -5.4307    0.0000 N   0  0  0  0  0  0  0  0  0  0  0  0
   -3.4710   -4.6770    0.0000 C   0  0  0  0  0  0  0  0  0  0  0  0
   -2.8579   -4.1250    0.0000 C   0  0  0  0  0  0  0  0  0  0  0  0
   -2.8579   -3.3000    0.0000 C   0  0  0  0  0  0  0  0  0  0  0  0
   -1.4289   -1.6500    0.0000 S   0  0  0  0  0  0  0  0  0  0  0  0
   -1.0164   -2.3645    0.0000 O   0  0  0  0  0  0  0  0  0  0  0  0
   -1.8414   -0.9355    0.0000 O   0  0  0  0  0  0  0  0  0  0  0  0
   -0.7145   -1.2375    0.0000 C   0  0  0  0  0  0  0  0  0  0  0  0
    0.0000   -1.6500    0.0000 C   0  0  0  0  0  0  0  0  0  0  0  0
    0.7145   -1.2375    0.0000 C   0  0  0  0  0  0  0  0  0  0  0  0
    0.7145   -0.4125    0.0000 C   0  0  0  0  0  0  0  0  0  0  0  0
    0.0000   -0.0000    0.0000 C   0  0  0  0  0  0  0  0  0  0  0  0
   -0.7145   -0.4125    0.0000 C   0  0  0  0  0  0  0  0  0  0  0  0
    1.4289   -0.0000    0.0000 N   0  0  0  0  0  0  0  0  0  0  0  0
    1.4289    0.8250    0.0000 C   0  0  0  0  0  0  0  0  0  0  0  0
    2.1434   -0.4125    0.0000 C   0  0  0  0  0  0  0  0  0  0  0  0
    2.8579   -0.0000    0.0000 O   0  0  0  0  0  0  0  0  0  0  0  0
    2.1434   -1.2375    0.0000 N   0  0  0  0  0  0  0  0  0  0  0  0
    2.8579   -1.6500    0.0000 C   0  0  0  0  0  0  0  0  0  0  0  0
    1.4289   -1.6500    0.0000 C   0  0  0  0  0  0  0  0  0  0  0  0
    1.4289   -2.4750    0.0000 O   0  0  0  0  0  0  0  0  0  0  0  0
  1  2  1  0  0  0  0
  2  3  1  0  0  0  0
  3  4  1  0  0  0  0
  4  5  2  0  0  0  0
  5  6  1  0  0  0  0
  6  7  1  0  0  0  0
  5  8  1  0  0  0  0
  8  9  2  0  0  0  0
  9 10  1  0  0  0  0
 10 11  1  0  0  0  0
 11 12  2  0  0  0  0
 12 13  1  0  0  0  0
  9 13  1  0  0  0  0
 13 14  2  0  0  0  0
  4 14  1  0  0  0  0
  3 15  1  0  0  0  0
 15 16  2  0  0  0  0
 15 17  2  0  0  0  0
 15 18  1  0  0  0  0
 18 19  2  0  0  0  0
 19 20  1  0  0  0  0
 20 21  2  0  0  0  0
 21 22  1  0  0  0  0
 22 23  2  0  0  0  0
 18 23  1  0  0  0  0
 21 24  1  0  0  0  0
 24 25  1  0  0  0  0
 24 26  1  0  0  0  0
 26 27  2  0  0  0  0
 26 28  1  0  0  0  0
 28 29  1  0  0  0  0
 28 30  1  0  0  0  0
 20 30  1  0  0  0  0
 30 31  2  0  0  0  0
M  END
> <ID>
CPD_2550

$$$$
CPD_2555
  Mrv1822 09091914012D          

 28 30  0  0  0  0            999 V2000
   -2.1434   -0.4125    0.0000 C   0  0  0  0  0  0  0  0  0  0  0  0
   -1.4289   -0.8250    0.0000 O   0  0  0  0  0  0  0  0  0  0  0  0
   -1.4289   -1.6500    0.0000 C   0  0  0  0  0  0  0  0  0  0  0  0
   -0.7145   -2.0625    0.0000 C   0  0  0  0  0  0  0  0  0  0  0  0
   -0.7145   -2.8875    0.0000 C   0  0  0  0  0  0  0  0  0  0  0  0
   -1.4289   -3.3000    0.0000 C   0  0  0  0  0  0  0  0  0  0  0  0
   -2.1434   -2.8875    0.0000 C   0  0  0  0  0  0  0  0  0  0  0  0
   -2.1434   -2.0625    0.0000 C   0  0  0  0  0  0  0  0  0  0  0  0
   -1.4289   -4.1250    0.0000 S   0  0  0  0  0  0  0  0  0  0  0  0
   -2.2539   -4.1250    0.0000 O   0  0  0  0  0  0  0  0  0  0  0  0
   -0.6039   -4.1250    0.0000 O   0  0  0  0  0  0  0  0  0  0  0  0
   -1.4289   -4.9500    0.0000 N   0  0  0  0  0  0  0  0  0  0  0  0
   -2.1434   -5.3625    0.0000 C   0  0  0  0  0  0  0  0  0  0  0  0
   -2.8579   -4.9500    0.0000 C   0  0  0  0  0  0  0  0  0  0  0  0
   -2.8579   -4.1250    0.0000 C   0  0  0  0  0  0  0  0  0  0  0  0
   -3.5724   -5.3625    0.0000 C   0  0  0  0  0  0  0  0  0  0  0  0
   -3.5724   -6.1875    0.0000 C   0  0  0  0  0  0  0  0  0  0  0  0
   -4.2868   -6.6000    0.0000 Cl  0  0  0  0  0  0  0  0  0  0  0  0
   -2.8579   -6.6000    0.0000 C   0  0  0  0  0  0  0  0  0  0  0  0
   -2.1434   -6.1875    0.0000 C   0  0  0  0  0  0  0  0  0  0  0  0
   -0.7145   -5.3625    0.0000 C   0  0  0  0  0  0  0  0  0  0  0  0
   -0.0000   -4.9500    0.0000 C   0  0  0  0  0  0  0  0  0  0  0  0
    0.0000   -4.1250    0.0000 F   0  0  0  0  0  0  0  0  0  0  0  0
    0.7145   -5.3625    0.0000 C   0  0  0  0  0  0  0  0  0  0  0  0
    0.7145   -6.1875    0.0000 C   0  0  0  0  0  0  0  0  0  0  0  0
   -0.0000   -6.6000    0.0000 C   0  0  0  0  0  0  0  0  0  0  0  0
   -0.7145   -6.1875    0.0000 C   0  0  0  0  0  0  0  0  0  0  0  0
   -1.4289   -6.6000    0.0000 F   0  0  0  0  0  0  0  0  0  0  0  0
  1  2  1  0  0  0  0
  2  3  1  0  0  0  0
  3  4  2  0  0  0  0
  4  5  1  0  0  0  0
  5  6  2  0  0  0  0
  6  7  1  0  0  0  0
  7  8  2  0  0  0  0
  3  8  1  0  0  0  0
  6  9  1  0  0  0  0
  9 10  2  0  0  0  0
  9 11  2  0  0  0  0
  9 12  1  0  0  0  0
 12 13  1  0  0  0  0
 13 14  2  0  0  0  0
 14 15  1  0  0  0  0
 14 16  1  0  0  0  0
 16 17  2  0  0  0  0
 17 18  1  0  0  0  0
 17 19  1  0  0  0  0
 19 20  2  0  0  0  0
 13 20  1  0  0  0  0
 12 21  1  0  0  0  0
 21 22  2  0  0  0  0
 22 23  1  0  0  0  0
 22 24  1  0  0  0  0
 24 25  2  0  0  0  0
 25 26  1  0  0  0  0
 26 27  2  0  0  0  0
 21 27  1  0  0  0  0
 27 28  1  0  0  0  0
M  END
> <ID>
CPD_2555

$$$$
CPD_2560
  Mrv1822 09091914012D          

 17 19  0  0  0  0            999 V2000
    4.7278    2.8561    0.0000 C   0  0  0  0  0  0  0  0  0  0  0  0
    4.3922    2.1025    0.0000 C   0  0  0  0  0  0  0  0  0  0  0  0
    4.8047    1.3880    0.0000 C   0  0  0  0  0  0  0  0  0  0  0  0
    4.2527    0.7749    0.0000 S   0  0  0  0  0  0  0  0  0  0  0  0
    3.4990    1.1104    0.0000 C   0  0  0  0  0  0  0  0  0  0  0  0
    2.7845    0.6979    0.0000 N   0  0  0  0  0  0  0  0  0  0  0  0
    2.0701    1.1104    0.0000 C   0  0  0  0  0  0  0  0  0  0  0  0
    1.3556    0.6979    0.0000 C   0  0  0  0  0  0  0  0  0  0  0  0
    0.6411    1.1104    0.0000 C   0  0  0  0  0  0  0  0  0  0  0  0
    0.6411    1.9354    0.0000 C   0  0  0  0  0  0  0  0  0  0  0  0
   -0.1435    2.1904    0.0000 N   0  0  0  0  0  0  0  0  0  0  0  0
   -0.6284    1.5229    0.0000 C   0  0  0  0  0  0  0  0  0  0  0  0
   -0.1435    0.8555    0.0000 N   0  0  0  0  0  0  0  0  0  0  0  0
    1.3556    2.3479    0.0000 C   0  0  0  0  0  0  0  0  0  0  0  0
    1.3556    3.1729    0.0000 Br  0  0  0  0  0  0  0  0  0  0  0  0
    2.0701    1.9354    0.0000 C   0  0  0  0  0  0  0  0  0  0  0  0
    3.5852    1.9309    0.0000 C   0  0  0  0  0  0  0  0  0  0  0  0
  1  2  1  0  0  0  0
  2  3  2  0  0  0  0
  3  4  1  0  0  0  0
  4  5  1  0  0  0  0
  5  6  1  0  0  0  0
  6  7  1  0  0  0  0
  7  8  2  0  0  0  0
  8  9  1  0  0  0  0
  9 10  2  0  0  0  0
 10 11  1  0  0  0  0
 11 12  2  0  0  0  0
 12 13  1  0  0  0  0
  9 13  1  0  0  0  0
 10 14  1  0  0  0  0
 14 15  1  0  0  0  0
 14 16  2  0  0  0  0
  7 16  1  0  0  0  0
  5 17  2  0  0  0  0
  2 17  1  0  0  0  0
M  END
> <ID>
CPD_2560

$$$$
CPD_2565
  Mrv1822 09091914012D          

 28 31  0  0  0  0            999 V2000
    5.6294   -0.3180    0.0000 C   0  0  0  0  0  0  0  0  0  0  0  0
    5.6294   -1.1430    0.0000 C   0  0  0  0  0  0  0  0  0  0  0  0
    6.2968   -1.6279    0.0000 C   0  0  0  0  0  0  0  0  0  0  0  0
    6.0419   -2.4126    0.0000 S   0  0  0  0  0  0  0  0  0  0  0  0
    5.2169   -2.4126    0.0000 C   0  0  0  0  0  0  0  0  0  0  0  0
    4.7320   -3.0800    0.0000 N   0  0  0  0  0  0  0  0  0  0  0  0
    3.9115   -2.9938    0.0000 C   0  0  0  0  0  0  0  0  0  0  0  0
    3.4266   -3.6612    0.0000 C   0  0  0  0  0  0  0  0  0  0  0  0
    2.6061   -3.5750    0.0000 C   0  0  0  0  0  0  0  0  0  0  0  0
    2.2705   -2.8213    0.0000 C   0  0  0  0  0  0  0  0  0  0  0  0
    2.7555   -2.1539    0.0000 C   0  0  0  0  0  0  0  0  0  0  0  0
    3.5759   -2.2401    0.0000 C   0  0  0  0  0  0  0  0  0  0  0  0
    4.0609   -1.5727    0.0000 C   0  0  0  0  0  0  0  0  0  0  0  0
    2.1212   -4.2424    0.0000 N   0  0  0  0  0  0  0  0  0  0  0  0
    2.3761   -5.0270    0.0000 N   0  0  0  0  0  0  0  0  0  0  0  0
    1.7087   -5.5120    0.0000 N   0  0  0  0  0  0  0  0  0  0  0  0
    1.0412   -5.0270    0.0000 C   0  0  0  0  0  0  0  0  0  0  0  0
    0.2566   -5.2820    0.0000 C   0  0  0  0  0  0  0  0  0  0  0  0
   -0.3565   -4.7299    0.0000 O   0  0  0  0  0  0  0  0  0  0  0  0
    0.0851   -6.0889    0.0000 O   0  0  0  0  0  0  0  0  0  0  0  0
    1.2962   -4.2424    0.0000 C   0  0  0  0  0  0  0  0  0  0  0  0
    0.8113   -3.5750    0.0000 C   0  0  0  0  0  0  0  0  0  0  0  0
   -0.0092   -3.6612    0.0000 C   0  0  0  0  0  0  0  0  0  0  0  0
   -0.4942   -2.9938    0.0000 C   0  0  0  0  0  0  0  0  0  0  0  0
   -0.1586   -2.2401    0.0000 N   0  0  0  0  0  0  0  0  0  0  0  0
    0.6619   -2.1539    0.0000 C   0  0  0  0  0  0  0  0  0  0  0  0
    1.1468   -2.8213    0.0000 C   0  0  0  0  0  0  0  0  0  0  0  0
    4.9620   -1.6279    0.0000 C   0  0  0  0  0  0  0  0  0  0  0  0
  1  2  1  0  0  0  0
  2  3  2  0  0  0  0
  3  4  1  0  0  0  0
  4  5  1  0  0  0  0
  5  6  1  0  0  0  0
  6  7  1  0  0  0  0
  7  8  2  0  0  0  0
  8  9  1  0  0  0  0
  9 10  2  0  0  0  0
 10 11  1  0  0  0  0
 11 12  2  0  0  0  0
  7 12  1  0  0  0  0
 12 13  1  0  0  0  0
  9 14  1  0  0  0  0
 14 15  1  0  0  0  0
 15 16  2  0  0  0  0
 16 17  1  0  0  0  0
 17 18  1  0  0  0  0
 18 19  1  0  0  0  0
 18 20  2  0  0  0  0
 17 21  2  0  0  0  0
 14 21  1  0  0  0  0
 21 22  1  0  0  0  0
 22 23  2  0  0  0  0
 23 24  1  0  0  0  0
 24 25  2  0  0  0  0
 25 26  1  0  0  0  0
 26 27  2  0  0  0  0
 22 27  1  0  0  0  0
  5 28  2  0  0  0  0
  2 28  1  0  0  0  0
M  END
> <ID>
CPD_2565

$$$$
CPD_2570
  Mrv1822 09091914012D          

 34 39  0  0  0  0            999 V2000
    5.0645   -0.6422    0.0000 C   0  0  0  0  0  0  0  0  0  0  0  0
    4.2575   -0.8137    0.0000 O   0  0  0  0  0  0  0  0  0  0  0  0
    3.7054   -0.2006    0.0000 C   0  0  0  0  0  0  0  0  0  0  0  0
    2.8985   -0.3721    0.0000 C   0  0  0  0  0  0  0  0  0  0  0  0
    2.3464    0.2410    0.0000 C   0  0  0  0  0  0  0  0  0  0  0  0
    2.6014    1.0256    0.0000 C   0  0  0  0  0  0  0  0  0  0  0  0
    1.9339    1.5105    0.0000 N   0  0  0  0  0  0  0  0  0  0  0  0
    1.2665    1.0256    0.0000 C   0  0  0  0  0  0  0  0  0  0  0  0
    1.5214    0.2410    0.0000 C   0  0  0  0  0  0  0  0  0  0  0  0
    0.9694   -0.3721    0.0000 N   0  0  0  0  0  0  0  0  0  0  0  0
    0.1624   -0.2006    0.0000 C   0  0  0  0  0  0  0  0  0  0  0  0
   -0.0925    0.5840    0.0000 N   0  0  0  0  0  0  0  0  0  0  0  0
    0.4595    1.1971    0.0000 C   0  0  0  0  0  0  0  0  0  0  0  0
    0.2046    1.9817    0.0000 N   0  0  0  0  0  0  0  0  0  0  0  0
   -0.6024    2.1533    0.0000 C   0  0  0  0  0  0  0  0  0  0  0  0
   -0.8573    2.9379    0.0000 C   0  0  0  0  0  0  0  0  0  0  0  0
   -0.3053    3.5510    0.0000 N   0  0  0  0  0  0  0  0  0  0  0  0
    0.5017    3.3795    0.0000 C   0  0  0  0  0  0  0  0  0  0  0  0
    0.7566    2.5948    0.0000 C   0  0  0  0  0  0  0  0  0  0  0  0
   -0.5602    4.3356    0.0000 C   0  0  0  0  0  0  0  0  0  0  0  0
   -1.3672    4.5071    0.0000 C   0  0  0  0  0  0  0  0  0  0  0  0
   -1.6221    5.2918    0.0000 C   0  0  0  0  0  0  0  0  0  0  0  0
   -1.0701    5.9049    0.0000 C   0  0  0  0  0  0  0  0  0  0  0  0
   -0.2631    5.7333    0.0000 C   0  0  0  0  0  0  0  0  0  0  0  0
   -0.0082    4.9487    0.0000 C   0  0  0  0  0  0  0  0  0  0  0  0
   -1.3250    6.6895    0.0000 N   0  0  0  0  0  0  0  0  0  0  0  0
   -2.1097    6.9444    0.0000 N   0  0  0  0  0  0  0  0  0  0  0  0
   -2.1097    7.7694    0.0000 C   0  0  0  0  0  0  0  0  0  0  0  0
   -2.7771    8.2543    0.0000 N   0  0  0  0  0  0  0  0  0  0  0  0
   -1.3250    8.0244    0.0000 C   0  0  0  0  0  0  0  0  0  0  0  0
   -0.8401    7.3569    0.0000 C   0  0  0  0  0  0  0  0  0  0  0  0
   -0.0151    7.3569    0.0000 O   0  0  0  0  0  0  0  0  0  0  0  0
    3.4084    1.1971    0.0000 C   0  0  0  0  0  0  0  0  0  0  0  0
    3.9604    0.5840    0.0000 C   0  0  0  0  0  0  0  0  0  0  0  0
  1  2  1  0  0  0  0
  2  3  1  0  0  0  0
  3  4  2  0  0  0  0
  4  5  1  0  0  0  0
  5  6  2  0  0  0  0
  6  7  1  0  0  0  0
  7  8  1  0  0  0  0
  8  9  2  0  0  0  0
  5  9  1  0  0  0  0
  9 10  1  0  0  0  0
 10 11  2  0  0  0  0
 11 12  1  0  0  0  0
 12 13  2  0  0  0  0
  8 13  1  0  0  0  0
 13 14  1  0  0  0  0
 14 15  1  0  0  0  0
 15 16  1  0  0  0  0
 16 17  1  0  0  0  0
 17 18  1  0  0  0  0
 18 19  1  0  0  0  0
 14 19  1  0  0  0  0
 17 20  1  0  0  0  0
 20 21  2  0  0  0  0
 21 22  1  0  0  0  0
 22 23  2  0  0  0  0
 23 24  1  0  0  0  0
 24 25  2  0  0  0  0
 20 25  1  0  0  0  0
 23 26  1  0  0  0  0
 26 27  1  0  0  0  0
 27 28  2  0  0  0  0
 28 29  1  0  0  0  0
 28 30  1  0  0  0  0
 30 31  1  0  0  0  0
 26 31  1  0  0  0  0
 31 32  2  0  0  0  0
  6 33  1  0  0  0  0
 33 34  2  0  0  0  0
  3 34  1  0  0  0  0
M  END
> <ID>
CPD_2570

$$$$
CPD_2575
  Mrv1822 09091914012D          

 31 36  0  0  0  0            999 V2000
   15.7910   -2.4106    0.0000 C   0  0  0  0  0  0  0  0  0  0  0  0
   15.3060   -3.0780    0.0000 O   0  0  0  0  0  0  0  0  0  0  0  0
   14.4855   -2.9918    0.0000 C   0  0  0  0  0  0  0  0  0  0  0  0
   14.0006   -3.6592    0.0000 C   0  0  0  0  0  0  0  0  0  0  0  0
   13.1801   -3.5730    0.0000 C   0  0  0  0  0  0  0  0  0  0  0  0
   12.8446   -2.8193    0.0000 C   0  0  0  0  0  0  0  0  0  0  0  0
   12.0241   -2.9055    0.0000 N   0  0  0  0  0  0  0  0  0  0  0  0
   11.8526   -3.7125    0.0000 C   0  0  0  0  0  0  0  0  0  0  0  0
   12.5671   -4.1250    0.0000 C   0  0  0  0  0  0  0  0  0  0  0  0
   12.5671   -4.9500    0.0000 N   0  0  0  0  0  0  0  0  0  0  0  0
   11.8526   -5.3625    0.0000 C   0  0  0  0  0  0  0  0  0  0  0  0
   11.1381   -4.9500    0.0000 N   0  0  0  0  0  0  0  0  0  0  0  0
   11.1381   -4.1250    0.0000 C   0  0  0  0  0  0  0  0  0  0  0  0
   10.4236   -3.7125    0.0000 N   0  0  0  0  0  0  0  0  0  0  0  0
    9.7092   -4.1250    0.0000 C   0  0  0  0  0  0  0  0  0  0  0  0
    8.9947   -3.7125    0.0000 C   0  0  0  0  0  0  0  0  0  0  0  0
    8.9947   -2.8875    0.0000 N   0  0  0  0  0  0  0  0  0  0  0  0
    9.7092   -2.4750    0.0000 C   0  0  0  0  0  0  0  0  0  0  0  0
   10.4236   -2.8875    0.0000 C   0  0  0  0  0  0  0  0  0  0  0  0
    8.2802   -2.4750    0.0000 C   0  0  0  0  0  0  0  0  0  0  0  0
    7.5658   -2.8875    0.0000 C   0  0  0  0  0  0  0  0  0  0  0  0
    6.8513   -2.4750    0.0000 N   0  0  0  0  0  0  0  0  0  0  0  0
    6.0667   -2.7299    0.0000 C   0  0  0  0  0  0  0  0  0  0  0  0
    5.5817   -2.0625    0.0000 N   0  0  0  0  0  0  0  0  0  0  0  0
    6.0667   -1.3951    0.0000 N   0  0  0  0  0  0  0  0  0  0  0  0
    6.8513   -1.6500    0.0000 C   0  0  0  0  0  0  0  0  0  0  0  0
    7.5658   -1.2375    0.0000 C   0  0  0  0  0  0  0  0  0  0  0  0
    7.5658   -0.4125    0.0000 N   0  0  0  0  0  0  0  0  0  0  0  0
    8.2802   -1.6500    0.0000 C   0  0  0  0  0  0  0  0  0  0  0  0
   13.3295   -2.1519    0.0000 C   0  0  0  0  0  0  0  0  0  0  0  0
   14.1500   -2.2381    0.0000 C   0  0  0  0  0  0  0  0  0  0  0  0
  1  2  1  0  0  0  0
  2  3  1  0  0  0  0
  3  4  2  0  0  0  0
  4  5  1  0  0  0  0
  5  6  2  0  0  0  0
  6  7  1  0  0  0  0
  7  8  1  0  0  0  0
  8  9  2  0  0  0  0
  5  9  1  0  0  0  0
  9 10  1  0  0  0  0
 10 11  2  0  0  0  0
 11 12  1  0  0  0  0
 12 13  2  0  0  0  0
  8 13  1  0  0  0  0
 13 14  1  0  0  0  0
 14 15  1  0  0  0  0
 15 16  1  0  0  0  0
 16 17  1  0  0  0  0
 17 18  1  0  0  0  0
 18 19  1  0  0  0  0
 14 19  1  0  0  0  0
 17 20  1  0  0  0  0
 20 21  2  0  0  0  0
 21 22  1  0  0  0  0
 22 23  1  0  0  0  0
 23 24  2  0  0  0  0
 24 25  1  0  0  0  0
 25 26  2  0  0  0  0
 22 26  1  0  0  0  0
 26 27  1  0  0  0  0
 27 28  1  0  0  0  0
 27 29  2  0  0  0  0
 20 29  1  0  0  0  0
  6 30  1  0  0  0  0
 30 31  2  0  0  0  0
  3 31  1  0  0  0  0
M  END
> <ID>
CPD_2575

$$$$
CPD_2580
  Mrv1822 09091914012D          

 31 34  0  0  0  0            999 V2000
   -6.5920    1.9470    0.0000 C   0  0  0  0  0  0  0  0  0  0  0  0
   -5.8074    2.2019    0.0000 C   0  0  0  0  0  0  0  0  0  0  0  0
   -5.1943    1.6499    0.0000 O   0  0  0  0  0  0  0  0  0  0  0  0
   -4.4096    1.9048    0.0000 C   0  0  0  0  0  0  0  0  0  0  0  0
   -4.2381    2.7118    0.0000 O   0  0  0  0  0  0  0  0  0  0  0  0
   -3.7966    1.3528    0.0000 C   0  0  0  0  0  0  0  0  0  0  0  0
   -3.0119    1.6077    0.0000 C   0  0  0  0  0  0  0  0  0  0  0  0
   -2.3988    1.0557    0.0000 C   0  0  0  0  0  0  0  0  0  0  0  0
   -2.5704    0.2487    0.0000 N   0  0  0  0  0  0  0  0  0  0  0  0
   -1.9573   -0.3033    0.0000 C   0  0  0  0  0  0  0  0  0  0  0  0
   -1.1726   -0.0484    0.0000 C   0  0  0  0  0  0  0  0  0  0  0  0
   -0.9177    0.7362    0.0000 N   0  0  0  0  0  0  0  0  0  0  0  0
   -0.0927    0.7362    0.0000 N   0  0  0  0  0  0  0  0  0  0  0  0
    0.3922    1.4037    0.0000 C   0  0  0  0  0  0  0  0  0  0  0  0
    0.1622   -0.0484    0.0000 C   0  0  0  0  0  0  0  0  0  0  0  0
   -0.5052   -0.5333    0.0000 C   0  0  0  0  0  0  0  0  0  0  0  0
   -0.5052   -1.3583    0.0000 N   0  0  0  0  0  0  0  0  0  0  0  0
    0.0782   -1.9417    0.0000 C   0  0  0  0  0  0  0  0  0  0  0  0
   -0.5052   -2.5250    0.0000 C   0  0  0  0  0  0  0  0  0  0  0  0
   -1.0886   -1.9417    0.0000 C   0  0  0  0  0  0  0  0  0  0  0  0
   -0.5052   -3.3500    0.0000 O   0  0  0  0  0  0  0  0  0  0  0  0
    0.2093   -3.7625    0.0000 C   0  0  0  0  0  0  0  0  0  0  0  0
    0.9237   -3.3500    0.0000 C   0  0  0  0  0  0  0  0  0  0  0  0
    1.6382   -3.7625    0.0000 C   0  0  0  0  0  0  0  0  0  0  0  0
    2.3527   -3.3500    0.0000 F   0  0  0  0  0  0  0  0  0  0  0  0
    1.6382   -4.5875    0.0000 C   0  0  0  0  0  0  0  0  0  0  0  0
    2.3527   -5.0000    0.0000 F   0  0  0  0  0  0  0  0  0  0  0  0
    0.9237   -5.0000    0.0000 C   0  0  0  0  0  0  0  0  0  0  0  0
    0.2093   -4.5875    0.0000 C   0  0  0  0  0  0  0  0  0  0  0  0
   -3.3550   -0.0062    0.0000 C   0  0  0  0  0  0  0  0  0  0  0  0
   -3.9681    0.5458    0.0000 C   0  0  0  0  0  0  0  0  0  0  0  0
  1  2  1  0  0  0  0
  2  3  1  0  0  0  0
  3  4  1  0  0  0  0
  4  5  2  0  0  0  0
  4  6  1  0  0  0  0
  6  7  1  0  0  0  0
  7  8  1  0  0  0  0
  8  9  1  0  0  0  0
  9 10  1  0  0  0  0
 10 11  1  0  0  0  0
 11 12  2  0  0  0  0
 12 13  1  0  0  0  0
 13 14  1  0  0  0  0
 13 15  1  0  0  0  0
 15 16  2  0  0  0  0
 11 16  1  0  0  0  0
 16 17  1  0  0  0  0
 17 18  1  0  0  0  0
 18 19  1  0  0  0  0
 19 20  1  0  0  0  0
 17 20  1  0  0  0  0
 19 21  1  0  0  0  0
 21 22  1  0  0  0  0
 22 23  2  0  0  0  0
 23 24  1  0  0  0  0
 24 25  1  0  0  0  0
 24 26  2  0  0  0  0
 26 27  1  0  0  0  0
 26 28  1  0  0  0  0
 28 29  2  0  0  0  0
 22 29  1  0  0  0  0
  9 30  1  0  0  0  0
 30 31  1  0  0  0  0
  6 31  1  0  0  0  0
M  END
> <ID>
CPD_2580

$$$$
CPD_2585
  Mrv1822 09091914012D          

 26 29  0  0  0  0            999 V2000
    2.5645    3.3000    0.0000 C   0  0  0  0  0  0  0  0  0  0  0  0
    2.5645    2.4750    0.0000 O   0  0  0  0  0  0  0  0  0  0  0  0
    3.2789    2.0625    0.0000 C   0  0  0  0  0  0  0  0  0  0  0  0
    3.9934    2.4750    0.0000 O   0  0  0  0  0  0  0  0  0  0  0  0
    3.2789    1.2375    0.0000 C   0  0  0  0  0  0  0  0  0  0  0  0
    3.9934    0.8250    0.0000 C   0  0  0  0  0  0  0  0  0  0  0  0
    3.9934    0.0000    0.0000 C   0  0  0  0  0  0  0  0  0  0  0  0
    3.2789   -0.4125    0.0000 C   0  0  0  0  0  0  0  0  0  0  0  0
    3.2789   -1.2375    0.0000 N   0  0  0  0  0  0  0  0  0  0  0  0
    3.8623   -1.8209    0.0000 C   0  0  0  0  0  0  0  0  0  0  0  0
    3.2789   -2.4042    0.0000 C   0  0  0  0  0  0  0  0  0  0  0  0
    2.6956   -1.8209    0.0000 C   0  0  0  0  0  0  0  0  0  0  0  0
    3.2789   -3.2292    0.0000 O   0  0  0  0  0  0  0  0  0  0  0  0
    2.5645   -3.6417    0.0000 C   0  0  0  0  0  0  0  0  0  0  0  0
    2.5645   -4.4667    0.0000 C   0  0  0  0  0  0  0  0  0  0  0  0
    1.8500   -4.8792    0.0000 C   0  0  0  0  0  0  0  0  0  0  0  0
    1.8500   -5.7042    0.0000 F   0  0  0  0  0  0  0  0  0  0  0  0
    1.1355   -4.4667    0.0000 C   0  0  0  0  0  0  0  0  0  0  0  0
    0.4210   -4.8792    0.0000 F   0  0  0  0  0  0  0  0  0  0  0  0
    1.1355   -3.6417    0.0000 C   0  0  0  0  0  0  0  0  0  0  0  0
    1.8500   -3.2292    0.0000 C   0  0  0  0  0  0  0  0  0  0  0  0
    2.5645    0.0000    0.0000 C   0  0  0  0  0  0  0  0  0  0  0  0
    2.5645    0.8250    0.0000 C   0  0  0  0  0  0  0  0  0  0  0  0
    1.7798    1.0799    0.0000 N   0  0  0  0  0  0  0  0  0  0  0  0
    1.2949    0.4125    0.0000 C   0  0  0  0  0  0  0  0  0  0  0  0
    1.7798   -0.2549    0.0000 C   0  0  0  0  0  0  0  0  0  0  0  0
  1  2  1  0  0  0  0
  2  3  1  0  0  0  0
  3  4  2  0  0  0  0
  3  5  1  0  0  0  0
  5  6  2  0  0  0  0
  6  7  1  0  0  0  0
  7  8  2  0  0  0  0
  8  9  1  0  0  0  0
  9 10  1  0  0  0  0
 10 11  1  0  0  0  0
 11 12  1  0  0  0  0
  9 12  1  0  0  0  0
 11 13  1  0  0  0  0
 13 14  1  0  0  0  0
 14 15  2  0  0  0  0
 15 16  1  0  0  0  0
 16 17  1  0  0  0  0
 16 18  2  0  0  0  0
 18 19  1  0  0  0  0
 18 20  1  0  0  0  0
 20 21  2  0  0  0  0
 14 21  1  0  0  0  0
  8 22  1  0  0  0  0
 22 23  2  0  0  0  0
  5 23  1  0  0  0  0
 23 24  1  0  0  0  0
 24 25  1  0  0  0  0
 25 26  2  0  0  0  0
 22 26  1  0  0  0  0
M  END
> <ID>
CPD_2585

$$$$
CPD_2590
  Mrv1822 09091914012D          

 24 26  0  0  0  0            999 V2000
   -2.1434    1.2375    0.0000 F   0  0  0  0  0  0  0  0  0  0  0  0
   -1.4289    0.8250    0.0000 C   0  0  0  0  0  0  0  0  0  0  0  0
   -0.7145    1.2375    0.0000 C   0  0  0  0  0  0  0  0  0  0  0  0
   -0.7145    2.0625    0.0000 F   0  0  0  0  0  0  0  0  0  0  0  0
    0.0000    0.8250    0.0000 C   0  0  0  0  0  0  0  0  0  0  0  0
    0.0000    0.0000    0.0000 C   0  0  0  0  0  0  0  0  0  0  0  0
    0.7145   -0.4125    0.0000 O   0  0  0  0  0  0  0  0  0  0  0  0
    0.7145   -1.2375    0.0000 C   0  0  0  0  0  0  0  0  0  0  0  0
    1.2978   -1.8209    0.0000 C   0  0  0  0  0  0  0  0  0  0  0  0
    0.7145   -2.4042    0.0000 N   0  0  0  0  0  0  0  0  0  0  0  0
    0.1311   -1.8209    0.0000 C   0  0  0  0  0  0  0  0  0  0  0  0
    0.7145   -3.2292    0.0000 C   0  0  0  0  0  0  0  0  0  0  0  0
    1.4289   -3.6417    0.0000 C   0  0  0  0  0  0  0  0  0  0  0  0
    2.1434   -3.2292    0.0000 C   0  0  0  0  0  0  0  0  0  0  0  0
    2.1434   -2.4042    0.0000 C   0  0  0  0  0  0  0  0  0  0  0  0
    2.1434   -1.5792    0.0000 N   0  0  0  0  0  0  0  0  0  0  0  0
    1.4289   -4.4667    0.0000 C   0  0  0  0  0  0  0  0  0  0  0  0
    2.1434   -4.8792    0.0000 F   0  0  0  0  0  0  0  0  0  0  0  0
    0.7145   -4.8792    0.0000 C   0  0  0  0  0  0  0  0  0  0  0  0
    0.7145   -5.7042    0.0000 F   0  0  0  0  0  0  0  0  0  0  0  0
    0.0000   -4.4667    0.0000 C   0  0  0  0  0  0  0  0  0  0  0  0
    0.0000   -3.6417    0.0000 C   0  0  0  0  0  0  0  0  0  0  0  0
   -0.7145   -0.4125    0.0000 C   0  0  0  0  0  0  0  0  0  0  0  0
   -1.4289    0.0000    0.0000 C   0  0  0  0  0  0  0  0  0  0  0  0
  1  2  1  0  0  0  0
  2  3  2  0  0  0  0
  3  4  1  0  0  0  0
  3  5  1  0  0  0  0
  5  6  2  0  0  0  0
  6  7  1  0  0  0  0
  7  8  1  0  0  0  0
  8  9  1  0  0  0  0
  9 10  1  0  0  0  0
 10 11  1  0  0  0  0
  8 11  1  0  0  0  0
 10 12  1  0  0  0  0
 12 13  2  0  0  0  0
 13 14  1  0  0  0  0
 14 15  1  0  0  0  0
 15 16  3  0  0  0  0
 13 17  1  0  0  0  0
 17 18  1  0  0  0  0
 17 19  2  0  0  0  0
 19 20  1  0  0  0  0
 19 21  1  0  0  0  0
 21 22  2  0  0  0  0
 12 22  1  0  0  0  0
  6 23  1  0  0  0  0
 23 24  2  0  0  0  0
  2 24  1  0  0  0  0
M  END
> <ID>
CPD_2590

$$$$
CPD_2595
  Mrv1822 09091914012D          

 21 23  0  0  0  0            999 V2000
   -1.8212   -2.1269    0.0000 C   0  0  0  0  0  0  0  0  0  0  0  0
   -1.4087   -1.4124    0.0000 C   0  0  0  0  0  0  0  0  0  0  0  0
   -0.5837   -1.4124    0.0000 O   0  0  0  0  0  0  0  0  0  0  0  0
   -0.1712   -0.6979    0.0000 C   0  0  0  0  0  0  0  0  0  0  0  0
   -0.5837    0.0165    0.0000 O   0  0  0  0  0  0  0  0  0  0  0  0
    0.6538   -0.6979    0.0000 C   0  0  0  0  0  0  0  0  0  0  0  0
    1.1387   -0.0305    0.0000 C   0  0  0  0  0  0  0  0  0  0  0  0
    0.8838    0.7541    0.0000 N   0  0  0  0  0  0  0  0  0  0  0  0
    0.1487    1.1287    0.0000 C   0  0  0  0  0  0  0  0  0  0  0  0
    0.5232    1.8637    0.0000 C   0  0  0  0  0  0  0  0  0  0  0  0
   -0.2118    2.2383    0.0000 C   0  0  0  0  0  0  0  0  0  0  0  0
    0.8978    2.5988    0.0000 F   0  0  0  0  0  0  0  0  0  0  0  0
    1.2583    1.4892    0.0000 C   0  0  0  0  0  0  0  0  0  0  0  0
    1.9233   -0.2854    0.0000 N   0  0  0  0  0  0  0  0  0  0  0  0
    2.6378    0.1271    0.0000 C   0  0  0  0  0  0  0  0  0  0  0  0
    3.3523   -0.2854    0.0000 C   0  0  0  0  0  0  0  0  0  0  0  0
    3.3523   -1.1104    0.0000 C   0  0  0  0  0  0  0  0  0  0  0  0
    4.0668   -1.5229    0.0000 C   0  0  0  0  0  0  0  0  0  0  0  0
    2.6378   -1.5229    0.0000 C   0  0  0  0  0  0  0  0  0  0  0  0
    1.9233   -1.1104    0.0000 C   0  0  0  0  0  0  0  0  0  0  0  0
    1.1387   -1.3654    0.0000 N   0  0  0  0  0  0  0  0  0  0  0  0
  1  2  1  0  0  0  0
  2  3  1  0  0  0  0
  3  4  1  0  0  0  0
  4  5  2  0  0  0  0
  4  6  1  0  0  0  0
  6  7  2  0  0  0  0
  7  8  1  0  0  0  0
  8  9  1  0  0  0  0
  9 10  1  0  0  0  0
 10 11  1  0  0  0  0
 10 12  1  0  0  0  0
 10 13  1  0  0  0  0
  8 13  1  0  0  0  0
  7 14  1  0  0  0  0
 14 15  1  0  0  0  0
 15 16  2  0  0  0  0
 16 17  1  0  0  0  0
 17 18  1  0  0  0  0
 17 19  2  0  0  0  0
 19 20  1  0  0  0  0
 14 20  1  0  0  0  0
 20 21  2  0  0  0  0
  6 21  1  0  0  0  0
M  END
> <ID>
CPD_2595

$$$$
CPD_2600
  Mrv1822 09091914012D          

 23 26  0  0  0  0            999 V2000
    5.8741    2.7178    0.0000 C   0  0  0  0  0  0  0  0  0  0  0  0
    5.0772    2.9313    0.0000 C   0  0  0  0  0  0  0  0  0  0  0  0
    5.2907    3.7282    0.0000 F   0  0  0  0  0  0  0  0  0  0  0  0
    4.8636    2.1344    0.0000 C   0  0  0  0  0  0  0  0  0  0  0  0
    4.0668    2.3479    0.0000 N   0  0  0  0  0  0  0  0  0  0  0  0
    4.2803    3.1448    0.0000 C   0  0  0  0  0  0  0  0  0  0  0  0
    3.3523    1.9354    0.0000 C   0  0  0  0  0  0  0  0  0  0  0  0
    3.3523    1.1104    0.0000 C   0  0  0  0  0  0  0  0  0  0  0  0
    4.0668    0.6979    0.0000 F   0  0  0  0  0  0  0  0  0  0  0  0
    2.6378    0.6979    0.0000 C   0  0  0  0  0  0  0  0  0  0  0  0
    2.6378   -0.1271    0.0000 F   0  0  0  0  0  0  0  0  0  0  0  0
    1.9233    1.1104    0.0000 C   0  0  0  0  0  0  0  0  0  0  0  0
    1.1387    0.8555    0.0000 N   0  0  0  0  0  0  0  0  0  0  0  0
    0.6538    1.5229    0.0000 C   0  0  0  0  0  0  0  0  0  0  0  0
    1.1387    2.1904    0.0000 N   0  0  0  0  0  0  0  0  0  0  0  0
    1.9233    1.9354    0.0000 C   0  0  0  0  0  0  0  0  0  0  0  0
    2.6378    2.3479    0.0000 C   0  0  0  0  0  0  0  0  0  0  0  0
    0.8838    0.0709    0.0000 C   0  0  0  0  0  0  0  0  0  0  0  0
    1.4358   -0.5422    0.0000 C   0  0  0  0  0  0  0  0  0  0  0  0
    1.1809   -1.3268    0.0000 C   0  0  0  0  0  0  0  0  0  0  0  0
    0.3739   -1.4984    0.0000 C   0  0  0  0  0  0  0  0  0  0  0  0
   -0.1781   -0.8853    0.0000 C   0  0  0  0  0  0  0  0  0  0  0  0
    0.0768   -0.1006    0.0000 C   0  0  0  0  0  0  0  0  0  0  0  0
  1  2  1  0  0  0  0
  2  3  1  0  0  0  0
  2  4  1  0  0  0  0
  4  5  1  0  0  0  0
  5  6  1  0  0  0  0
  2  6  1  0  0  0  0
  5  7  1  0  0  0  0
  7  8  2  0  0  0  0
  8  9  1  0  0  0  0
  8 10  1  0  0  0  0
 10 11  1  0  0  0  0
 10 12  2  0  0  0  0
 12 13  1  0  0  0  0
 13 14  1  0  0  0  0
 14 15  2  0  0  0  0
 15 16  1  0  0  0  0
 12 16  1  0  0  0  0
 16 17  2  0  0  0  0
  7 17  1  0  0  0  0
 13 18  1  0  0  0  0
 18 19  1  0  0  0  0
 19 20  1  0  0  0  0
 20 21  1  0  0  0  0
 21 22  1  0  0  0  0
 22 23  1  0  0  0  0
 18 23  1  0  0  0  0
M  END
> <ID>
CPD_2600

$$$$
CPD_2605
  Mrv1822 09091914012D          

 31 33  0  0  0  0            999 V2000
    0.7145   -2.0625    0.0000 C   0  0  0  0  0  0  0  0  0  0  0  0
    0.7145   -2.8875    0.0000 C   0  0  0  0  0  0  0  0  0  0  0  0
   -0.1105   -2.8875    0.0000 C   0  0  0  0  0  0  0  0  0  0  0  0
    1.5395   -2.8875    0.0000 C   0  0  0  0  0  0  0  0  0  0  0  0
    0.7145   -3.7125    0.0000 O   0  0  0  0  0  0  0  0  0  0  0  0
   -0.0000   -4.1250    0.0000 C   0  0  0  0  0  0  0  0  0  0  0  0
   -0.7145   -3.7125    0.0000 O   0  0  0  0  0  0  0  0  0  0  0  0
   -0.0000   -4.9500    0.0000 N   0  0  0  0  0  0  0  0  0  0  0  0
    0.7145   -5.3625    0.0000 C   0  0  0  0  0  0  0  0  0  0  0  0
    0.7145   -6.1875    0.0000 C   0  0  0  0  0  0  0  0  0  0  0  0
   -0.0000   -6.6000    0.0000 C   0  0  0  0  0  0  0  0  0  0  0  0
   -0.7145   -6.1875    0.0000 C   0  0  0  0  0  0  0  0  0  0  0  0
   -1.4289   -6.6000    0.0000 C   0  0  0  0  0  0  0  0  0  0  0  0
   -1.4289   -7.4250    0.0000 C   0  0  0  0  0  0  0  0  0  0  0  0
   -2.1434   -7.8375    0.0000 C   0  0  0  0  0  0  0  0  0  0  0  0
   -2.8579   -7.4250    0.0000 C   0  0  0  0  0  0  0  0  0  0  0  0
   -3.5724   -7.8375    0.0000 C   0  0  0  0  0  0  0  0  0  0  0  0
   -4.2868   -7.4250    0.0000 N   0  0  0  0  0  0  0  0  0  0  0  0
   -5.0013   -7.8375    0.0000 C   0  0  0  0  0  0  0  0  0  0  0  0
   -5.0013   -8.6625    0.0000 N   0  0  0  0  0  0  0  0  0  0  0  0
   -5.7158   -9.0750    0.0000 C   0  0  0  0  0  0  0  0  0  0  0  0
   -6.4302   -8.6625    0.0000 C   0  0  0  0  0  0  0  0  0  0  0  0
   -6.4302   -7.8375    0.0000 C   0  0  0  0  0  0  0  0  0  0  0  0
   -5.7158   -7.4250    0.0000 C   0  0  0  0  0  0  0  0  0  0  0  0
   -5.7158   -6.6000    0.0000 C   0  0  0  0  0  0  0  0  0  0  0  0
   -5.0013   -6.1875    0.0000 N   0  0  0  0  0  0  0  0  0  0  0  0
   -6.4302   -6.1875    0.0000 O   0  0  0  0  0  0  0  0  0  0  0  0
   -3.5724   -8.6625    0.0000 N   0  0  0  0  0  0  0  0  0  0  0  0
   -2.8579   -9.0750    0.0000 C   0  0  0  0  0  0  0  0  0  0  0  0
   -2.1434   -8.6625    0.0000 C   0  0  0  0  0  0  0  0  0  0  0  0
   -0.7145   -5.3625    0.0000 C   0  0  0  0  0  0  0  0  0  0  0  0
  1  2  1  0  0  0  0
  2  3  1  0  0  0  0
  2  4  1  0  0  0  0
  2  5  1  0  0  0  0
  5  6  1  0  0  0  0
  6  7  2  0  0  0  0
  6  8  1  0  0  0  0
  8  9  1  0  0  0  0
  9 10  1  0  0  0  0
 10 11  1  0  0  0  0
 11 12  1  0  0  0  0
 12 13  1  0  0  0  0
 13 14  1  0  0  0  0
 14 15  1  0  0  0  0
 15 16  2  0  0  0  0
 16 17  1  0  0  0  0
 17 18  1  0  0  0  0
 18 19  1  0  0  0  0
 19 20  2  0  0  0  0
 20 21  1  0  0  0  0
 21 22  2  0  0  0  0
 22 23  1  0  0  0  0
 23 24  2  0  0  0  0
 19 24  1  0  0  0  0
 24 25  1  0  0  0  0
 25 26  1  0  0  0  0
 25 27  2  0  0  0  0
 17 28  2  0  0  0  0
 28 29  1  0  0  0  0
 29 30  2  0  0  0  0
 15 30  1  0  0  0  0
 12 31  1  0  0  0  0
  8 31  1  0  0  0  0
M  END
> <ID>
CPD_2605

$$$$
CPD_2610
  Mrv1822 09091914012D          

 34 37  0  0  0  0            999 V2000
   -5.0013    3.7125    0.0000 C   0  0  0  0  0  0  0  0  0  0  0  0
   -4.2868    3.3000    0.0000 C   0  0  0  0  0  0  0  0  0  0  0  0
   -4.2868    2.4750    0.0000 C   0  0  0  0  0  0  0  0  0  0  0  0
   -3.5724    2.0625    0.0000 O   0  0  0  0  0  0  0  0  0  0  0  0
   -3.5724    1.2375    0.0000 C   0  0  0  0  0  0  0  0  0  0  0  0
   -2.8579    0.8250    0.0000 C   0  0  0  0  0  0  0  0  0  0  0  0
   -2.1434    1.2375    0.0000 N   0  0  0  0  0  0  0  0  0  0  0  0
   -1.4289    0.8250    0.0000 C   0  0  0  0  0  0  0  0  0  0  0  0
   -0.7145    1.2375    0.0000 C   0  0  0  0  0  0  0  0  0  0  0  0
    0.0000    0.8250    0.0000 C   0  0  0  0  0  0  0  0  0  0  0  0
    0.0000   -0.0000    0.0000 C   0  0  0  0  0  0  0  0  0  0  0  0
    0.7145   -0.4125    0.0000 C   0  0  0  0  0  0  0  0  0  0  0  0
    0.7145   -1.2375    0.0000 N   0  0  0  0  0  0  0  0  0  0  0  0
    1.3819   -1.7224    0.0000 C   0  0  0  0  0  0  0  0  0  0  0  0
    1.1270   -2.5070    0.0000 S   0  0  0  0  0  0  0  0  0  0  0  0
    0.3020   -2.5070    0.0000 C   0  0  0  0  0  0  0  0  0  0  0  0
    0.0470   -1.7224    0.0000 C   0  0  0  0  0  0  0  0  0  0  0  0
   -0.7376   -1.4675    0.0000 O   0  0  0  0  0  0  0  0  0  0  0  0
    2.1665   -1.4675    0.0000 C   0  0  0  0  0  0  0  0  0  0  0  0
    2.3381   -0.6605    0.0000 C   0  0  0  0  0  0  0  0  0  0  0  0
    3.1227   -0.4056    0.0000 C   0  0  0  0  0  0  0  0  0  0  0  0
    3.7358   -0.9576    0.0000 C   0  0  0  0  0  0  0  0  0  0  0  0
    3.5642   -1.7646    0.0000 C   0  0  0  0  0  0  0  0  0  0  0  0
    2.7796   -2.0195    0.0000 C   0  0  0  0  0  0  0  0  0  0  0  0
    4.5204   -0.7027    0.0000 C   0  0  0  0  0  0  0  0  0  0  0  0
    5.1335   -1.2547    0.0000 O   0  0  0  0  0  0  0  0  0  0  0  0
    4.6919    0.1043    0.0000 O   0  0  0  0  0  0  0  0  0  0  0  0
   -0.7145   -0.4125    0.0000 C   0  0  0  0  0  0  0  0  0  0  0  0
   -1.4289   -0.0000    0.0000 C   0  0  0  0  0  0  0  0  0  0  0  0
   -2.8579   -0.0000    0.0000 C   0  0  0  0  0  0  0  0  0  0  0  0
   -3.5724   -0.4125    0.0000 C   0  0  0  0  0  0  0  0  0  0  0  0
   -4.2868   -0.0000    0.0000 C   0  0  0  0  0  0  0  0  0  0  0  0
   -4.2868    0.8250    0.0000 C   0  0  0  0  0  0  0  0  0  0  0  0
   -5.0013    1.2375    0.0000 C   0  0  0  0  0  0  0  0  0  0  0  0
  1  2  1  0  0  0  0
  2  3  1  0  0  0  0
  3  4  1  0  0  0  0
  4  5  1  0  0  0  0
  5  6  2  0  0  0  0
  6  7  1  0  0  0  0
  7  8  1  0  0  0  0
  8  9  2  0  0  0  0
  9 10  1  0  0  0  0
 10 11  2  0  0  0  0
 11 12  1  0  0  0  0
 12 13  1  0  0  0  0
 13 14  1  0  0  0  0
 14 15  1  0  0  0  0
 15 16  1  0  0  0  0
 16 17  1  0  0  0  0
 13 17  1  0  0  0  0
 17 18  2  0  0  0  0
 14 19  1  0  0  0  0
 19 20  2  0  0  0  0
 20 21  1  0  0  0  0
 21 22  2  0  0  0  0
 22 23  1  0  0  0  0
 23 24  2  0  0  0  0
 19 24  1  0  0  0  0
 22 25  1  0  0  0  0
 25 26  1  0  0  0  0
 25 27  2  0  0  0  0
 11 28  1  0  0  0  0
 28 29  2  0  0  0  0
  8 29  1  0  0  0  0
  6 30  1  0  0  0  0
 30 31  2  0  0  0  0
 31 32  1  0  0  0  0
 32 33  2  0  0  0  0
  5 33  1  0  0  0  0
 33 34  1  0  0  0  0
M  END
> <ID>
CPD_2610

$$$$
CPD_2615
  Mrv1822 09091914012D          

 22 24  0  0  0  0            999 V2000
   -0.0000    7.1786    0.0000 C   0  0  0  0  0  0  0  0  0  0  0  0
    0.7145    6.7661    0.0000 O   0  0  0  0  0  0  0  0  0  0  0  0
    0.7145    5.9411    0.0000 C   0  0  0  0  0  0  0  0  0  0  0  0
    1.4289    5.5286    0.0000 C   0  0  0  0  0  0  0  0  0  0  0  0
    2.1434    5.9411    0.0000 N   0  0  0  0  0  0  0  0  0  0  0  0
    1.4289    4.7036    0.0000 C   0  0  0  0  0  0  0  0  0  0  0  0
    0.7145    4.2911    0.0000 C   0  0  0  0  0  0  0  0  0  0  0  0
    0.0000    4.7036    0.0000 C   0  0  0  0  0  0  0  0  0  0  0  0
   -0.0000    5.5286    0.0000 N   0  0  0  0  0  0  0  0  0  0  0  0
    0.7145    3.4661    0.0000 N   0  0  0  0  0  0  0  0  0  0  0  0
    1.3819    2.9812    0.0000 C   0  0  0  0  0  0  0  0  0  0  0  0
    1.1270    2.1965    0.0000 C   0  0  0  0  0  0  0  0  0  0  0  0
    0.3020    2.1965    0.0000 C   0  0  0  0  0  0  0  0  0  0  0  0
    0.0470    2.9812    0.0000 C   0  0  0  0  0  0  0  0  0  0  0  0
   -0.1830    1.5291    0.0000 C   0  0  0  0  0  0  0  0  0  0  0  0
    0.0720    0.7445    0.0000 N   0  0  0  0  0  0  0  0  0  0  0  0
   -0.5955    0.2595    0.0000 N   0  0  0  0  0  0  0  0  0  0  0  0
   -1.2629    0.7445    0.0000 C   0  0  0  0  0  0  0  0  0  0  0  0
   -2.0475    0.4895    0.0000 C   0  0  0  0  0  0  0  0  0  0  0  0
   -2.6606    1.0416    0.0000 C   0  0  0  0  0  0  0  0  0  0  0  0
   -3.4452    0.7866    0.0000 O   0  0  0  0  0  0  0  0  0  0  0  0
   -1.0080    1.5291    0.0000 C   0  0  0  0  0  0  0  0  0  0  0  0
  1  2  1  0  0  0  0
  2  3  1  0  0  0  0
  3  4  2  0  0  0  0
  4  5  1  0  0  0  0
  4  6  1  0  0  0  0
  6  7  2  0  0  0  0
  7  8  1  0  0  0  0
  8  9  2  0  0  0  0
  3  9  1  0  0  0  0
  7 10  1  0  0  0  0
 10 11  1  0  0  0  0
 11 12  1  0  0  0  0
 12 13  1  0  0  0  0
 13 14  1  0  0  0  0
 10 14  1  0  0  0  0
 13 15  1  0  0  0  0
 15 16  2  0  0  0  0
 16 17  1  0  0  0  0
 17 18  1  0  0  0  0
 18 19  1  0  0  0  0
 19 20  1  0  0  0  0
 20 21  1  0  0  0  0
 18 22  2  0  0  0  0
 15 22  1  0  0  0  0
M  END
> <ID>
CPD_2615

$$$$
CPD_2620
  Mrv1822 09091914012D          

 25 28  0  0  0  0            999 V2000
   -5.5753    0.8813    0.0000 O   0  0  0  0  0  0  0  0  0  0  0  0
   -4.8608    0.4688    0.0000 C   0  0  0  0  0  0  0  0  0  0  0  0
   -4.1464    0.8813    0.0000 C   0  0  0  0  0  0  0  0  0  0  0  0
   -3.4319    0.4688    0.0000 C   0  0  0  0  0  0  0  0  0  0  0  0
   -2.6782    0.8044    0.0000 C   0  0  0  0  0  0  0  0  0  0  0  0
   -2.1262    0.1913    0.0000 C   0  0  0  0  0  0  0  0  0  0  0  0
   -2.5387   -0.5232    0.0000 N   0  0  0  0  0  0  0  0  0  0  0  0
   -3.3457   -0.3516    0.0000 N   0  0  0  0  0  0  0  0  0  0  0  0
   -1.3057    0.2775    0.0000 C   0  0  0  0  0  0  0  0  0  0  0  0
   -0.8932    0.9920    0.0000 C   0  0  0  0  0  0  0  0  0  0  0  0
   -0.0862    0.8205    0.0000 C   0  0  0  0  0  0  0  0  0  0  0  0
    0.0000    0.0000    0.0000 N   0  0  0  0  0  0  0  0  0  0  0  0
   -0.7537   -0.3356    0.0000 C   0  0  0  0  0  0  0  0  0  0  0  0
    0.7145   -0.4125    0.0000 C   0  0  0  0  0  0  0  0  0  0  0  0
    1.4289    0.0000    0.0000 C   0  0  0  0  0  0  0  0  0  0  0  0
    1.4289    0.8250    0.0000 O   0  0  0  0  0  0  0  0  0  0  0  0
    2.1434   -0.4125    0.0000 C   0  0  0  0  0  0  0  0  0  0  0  0
    2.8579    0.0000    0.0000 C   0  0  0  0  0  0  0  0  0  0  0  0
    3.5724   -0.4125    0.0000 C   0  0  0  0  0  0  0  0  0  0  0  0
    3.5724   -1.2375    0.0000 C   0  0  0  0  0  0  0  0  0  0  0  0
    4.2868   -1.6500    0.0000 Br  0  0  0  0  0  0  0  0  0  0  0  0
    2.8579   -1.6500    0.0000 C   0  0  0  0  0  0  0  0  0  0  0  0
    2.1434   -1.2375    0.0000 C   0  0  0  0  0  0  0  0  0  0  0  0
    1.4289   -1.6500    0.0000 N   0  0  0  0  0  0  0  0  0  0  0  0
    0.7145   -1.2375    0.0000 C   0  0  0  0  0  0  0  0  0  0  0  0
  1  2  1  0  0  0  0
  2  3  1  0  0  0  0
  3  4  1  0  0  0  0
  4  5  2  0  0  0  0
  5  6  1  0  0  0  0
  6  7  2  0  0  0  0
  7  8  1  0  0  0  0
  4  8  1  0  0  0  0
  6  9  1  0  0  0  0
  9 10  1  0  0  0  0
 10 11  1  0  0  0  0
 11 12  1  0  0  0  0
 12 13  1  0  0  0  0
  9 13  1  0  0  0  0
 12 14  1  0  0  0  0
 14 15  2  0  0  0  0
 15 16  1  0  0  0  0
 15 17  1  0  0  0  0
 17 18  2  0  0  0  0
 18 19  1  0  0  0  0
 19 20  2  0  0  0  0
 20 21  1  0  0  0  0
 20 22  1  0  0  0  0
 22 23  2  0  0  0  0
 17 23  1  0  0  0  0
 23 24  1  0  0  0  0
 24 25  2  0  0  0  0
 14 25  1  0  0  0  0
M  END
> <ID>
CPD_2620

$$$$
CPD_2625
  Mrv1822 09091914012D          

 22 24  0  0  0  0            999 V2000
    1.3222    4.7652    0.0000 C   0  0  0  0  0  0  0  0  0  0  0  0
    2.0367    4.3527    0.0000 C   0  0  0  0  0  0  0  0  0  0  0  0
    2.7512    4.7652    0.0000 C   0  0  0  0  0  0  0  0  0  0  0  0
    3.4656    4.3527    0.0000 C   0  0  0  0  0  0  0  0  0  0  0  0
    3.4656    3.5277    0.0000 C   0  0  0  0  0  0  0  0  0  0  0  0
    2.7512    3.1152    0.0000 C   0  0  0  0  0  0  0  0  0  0  0  0
    2.7512    2.2902    0.0000 N   0  0  0  0  0  0  0  0  0  0  0  0
    3.4186    1.8053    0.0000 C   0  0  0  0  0  0  0  0  0  0  0  0
    3.1637    1.0206    0.0000 C   0  0  0  0  0  0  0  0  0  0  0  0
    2.3387    1.0206    0.0000 C   0  0  0  0  0  0  0  0  0  0  0  0
    2.0837    1.8053    0.0000 C   0  0  0  0  0  0  0  0  0  0  0  0
    1.8538    0.3532    0.0000 C   0  0  0  0  0  0  0  0  0  0  0  0
    2.1087   -0.4314    0.0000 N   0  0  0  0  0  0  0  0  0  0  0  0
    1.4413   -0.9163    0.0000 N   0  0  0  0  0  0  0  0  0  0  0  0
    0.7738   -0.4314    0.0000 C   0  0  0  0  0  0  0  0  0  0  0  0
   -0.0108   -0.6864    0.0000 C   0  0  0  0  0  0  0  0  0  0  0  0
   -0.6239   -0.1343    0.0000 C   0  0  0  0  0  0  0  0  0  0  0  0
   -1.4085   -0.3893    0.0000 O   0  0  0  0  0  0  0  0  0  0  0  0
    1.0288    0.3532    0.0000 C   0  0  0  0  0  0  0  0  0  0  0  0
    2.0367    3.5277    0.0000 C   0  0  0  0  0  0  0  0  0  0  0  0
    1.3222    3.1152    0.0000 C   0  0  0  0  0  0  0  0  0  0  0  0
    0.6078    2.7027    0.0000 N   0  0  0  0  0  0  0  0  0  0  0  0
  1  2  1  0  0  0  0
  2  3  2  0  0  0  0
  3  4  1  0  0  0  0
  4  5  2  0  0  0  0
  5  6  1  0  0  0  0
  6  7  1  0  0  0  0
  7  8  1  0  0  0  0
  8  9  1  0  0  0  0
  9 10  1  0  0  0  0
 10 11  1  0  0  0  0
  7 11  1  0  0  0  0
 10 12  1  0  0  0  0
 12 13  2  0  0  0  0
 13 14  1  0  0  0  0
 14 15  1  0  0  0  0
 15 16  1  0  0  0  0
 16 17  1  0  0  0  0
 17 18  1  0  0  0  0
 15 19  2  0  0  0  0
 12 19  1  0  0  0  0
  6 20  2  0  0  0  0
  2 20  1  0  0  0  0
 20 21  1  0  0  0  0
 21 22  3  0  0  0  0
M  END
> <ID>
CPD_2625

$$$$
CPD_2630
  Mrv1822 09091914012D          

 21 23  0  0  0  0            999 V2000
    1.3099   -0.9780    0.0000 O   0  0  0  0  0  0  0  0  0  0  0  0
    1.3099   -1.8030    0.0000 C   0  0  0  0  0  0  0  0  0  0  0  0
    2.0244   -2.2155    0.0000 C   0  0  0  0  0  0  0  0  0  0  0  0
    2.0244   -3.0405    0.0000 C   0  0  0  0  0  0  0  0  0  0  0  0
    2.6918   -3.5254    0.0000 C   0  0  0  0  0  0  0  0  0  0  0  0
    2.4369   -4.3100    0.0000 C   0  0  0  0  0  0  0  0  0  0  0  0
    1.6119   -4.3100    0.0000 N   0  0  0  0  0  0  0  0  0  0  0  0
    1.3570   -3.5254    0.0000 N   0  0  0  0  0  0  0  0  0  0  0  0
    2.9218   -4.9774    0.0000 C   0  0  0  0  0  0  0  0  0  0  0  0
    3.7468   -4.9774    0.0000 C   0  0  0  0  0  0  0  0  0  0  0  0
    4.0018   -5.7621    0.0000 C   0  0  0  0  0  0  0  0  0  0  0  0
    3.3343   -6.2470    0.0000 N   0  0  0  0  0  0  0  0  0  0  0  0
    2.6669   -5.7621    0.0000 C   0  0  0  0  0  0  0  0  0  0  0  0
    3.3343   -7.0720    0.0000 C   0  0  0  0  0  0  0  0  0  0  0  0
    4.0488   -7.4845    0.0000 C   0  0  0  0  0  0  0  0  0  0  0  0
    4.0488   -8.3095    0.0000 C   0  0  0  0  0  0  0  0  0  0  0  0
    4.7633   -8.7220    0.0000 F   0  0  0  0  0  0  0  0  0  0  0  0
    3.3343   -8.7220    0.0000 C   0  0  0  0  0  0  0  0  0  0  0  0
    3.3343   -9.5470    0.0000 O   0  0  0  0  0  0  0  0  0  0  0  0
    2.6198   -8.3095    0.0000 C   0  0  0  0  0  0  0  0  0  0  0  0
    2.6198   -7.4845    0.0000 C   0  0  0  0  0  0  0  0  0  0  0  0
  1  2  1  0  0  0  0
  2  3  1  0  0  0  0
  3  4  1  0  0  0  0
  4  5  2  0  0  0  0
  5  6  1  0  0  0  0
  6  7  2  0  0  0  0
  7  8  1  0  0  0  0
  4  8  1  0  0  0  0
  6  9  1  0  0  0  0
  9 10  1  0  0  0  0
 10 11  1  0  0  0  0
 11 12  1  0  0  0  0
 12 13  1  0  0  0  0
  9 13  1  0  0  0  0
 12 14  1  0  0  0  0
 14 15  2  0  0  0  0
 15 16  1  0  0  0  0
 16 17  1  0  0  0  0
 16 18  2  0  0  0  0
 18 19  1  0  0  0  0
 18 20  1  0  0  0  0
 20 21  2  0  0  0  0
 14 21  1  0  0  0  0
M  END
> <ID>
CPD_2630

$$$$
CPD_2635
  Mrv1822 09091914012D          

 23 25  0  0  0  0            999 V2000
    3.4656    1.0527    0.0000 C   0  0  0  0  0  0  0  0  0  0  0  0
    4.1801    0.6402    0.0000 C   0  0  0  0  0  0  0  0  0  0  0  0
    4.8946    1.0527    0.0000 O   0  0  0  0  0  0  0  0  0  0  0  0
    4.1801   -0.1848    0.0000 C   0  0  0  0  0  0  0  0  0  0  0  0
    4.8476   -0.6697    0.0000 C   0  0  0  0  0  0  0  0  0  0  0  0
    4.5926   -1.4544    0.0000 C   0  0  0  0  0  0  0  0  0  0  0  0
    5.0775   -2.1218    0.0000 N   0  0  0  0  0  0  0  0  0  0  0  0
    5.8980   -2.0356    0.0000 C   0  0  0  0  0  0  0  0  0  0  0  0
    6.3829   -2.7030    0.0000 C   0  0  0  0  0  0  0  0  0  0  0  0
    6.0474   -3.4567    0.0000 C   0  0  0  0  0  0  0  0  0  0  0  0
    5.2269   -3.5429    0.0000 C   0  0  0  0  0  0  0  0  0  0  0  0
    4.8914   -4.2966    0.0000 C   0  0  0  0  0  0  0  0  0  0  0  0
    4.0709   -4.3828    0.0000 C   0  0  0  0  0  0  0  0  0  0  0  0
    3.7353   -5.1365    0.0000 N   0  0  0  0  0  0  0  0  0  0  0  0
    2.9148   -5.2227    0.0000 C   0  0  0  0  0  0  0  0  0  0  0  0
    2.4299   -4.5553    0.0000 C   0  0  0  0  0  0  0  0  0  0  0  0
    1.6094   -4.6415    0.0000 C   0  0  0  0  0  0  0  0  0  0  0  0
    2.7655   -3.8016    0.0000 C   0  0  0  0  0  0  0  0  0  0  0  0
    3.5859   -3.7154    0.0000 C   0  0  0  0  0  0  0  0  0  0  0  0
    4.7420   -2.8755    0.0000 C   0  0  0  0  0  0  0  0  0  0  0  0
    3.7676   -1.4544    0.0000 C   0  0  0  0  0  0  0  0  0  0  0  0
    3.2827   -2.1218    0.0000 Br  0  0  0  0  0  0  0  0  0  0  0  0
    3.5127   -0.6697    0.0000 S   0  0  0  0  0  0  0  0  0  0  0  0
  1  2  1  0  0  0  0
  2  3  2  0  0  0  0
  2  4  1  0  0  0  0
  4  5  2  0  0  0  0
  5  6  1  0  0  0  0
  6  7  1  0  0  0  0
  7  8  1  0  0  0  0
  8  9  1  0  0  0  0
  9 10  1  0  0  0  0
 10 11  1  0  0  0  0
 11 12  1  0  0  0  0
 12 13  1  0  0  0  0
 13 14  2  0  0  0  0
 14 15  1  0  0  0  0
 15 16  2  0  0  0  0
 16 17  1  0  0  0  0
 16 18  1  0  0  0  0
 18 19  2  0  0  0  0
 13 19  1  0  0  0  0
 11 20  1  0  0  0  0
  7 20  1  0  0  0  0
  6 21  2  0  0  0  0
 21 22  1  0  0  0  0
 21 23  1  0  0  0  0
  4 23  1  0  0  0  0
M  END
> <ID>
CPD_2635

$$$$
CPD_2640
  Mrv1822 09091914012D          

 27 30  0  0  0  0            999 V2000
    7.7858   -0.5396    0.0000 C   0  0  0  0  0  0  0  0  0  0  0  0
    7.0714   -0.1271    0.0000 C   0  0  0  0  0  0  0  0  0  0  0  0
    6.3569   -0.5396    0.0000 C   0  0  0  0  0  0  0  0  0  0  0  0
    5.6424   -0.1271    0.0000 N   0  0  0  0  0  0  0  0  0  0  0  0
    5.6424    0.6979    0.0000 C   0  0  0  0  0  0  0  0  0  0  0  0
    4.9279    1.1104    0.0000 C   0  0  0  0  0  0  0  0  0  0  0  0
    4.2135    0.6979    0.0000 C   0  0  0  0  0  0  0  0  0  0  0  0
    4.2135   -0.1271    0.0000 C   0  0  0  0  0  0  0  0  0  0  0  0
    3.4990   -0.5396    0.0000 C   0  0  0  0  0  0  0  0  0  0  0  0
    2.7845   -0.1271    0.0000 C   0  0  0  0  0  0  0  0  0  0  0  0
    2.7845    0.6979    0.0000 N   0  0  0  0  0  0  0  0  0  0  0  0
    3.4990    1.1104    0.0000 C   0  0  0  0  0  0  0  0  0  0  0  0
    2.0701    1.1104    0.0000 C   0  0  0  0  0  0  0  0  0  0  0  0
    1.3556    0.6979    0.0000 C   0  0  0  0  0  0  0  0  0  0  0  0
    0.6411    1.1104    0.0000 N   0  0  0  0  0  0  0  0  0  0  0  0
   -0.1435    0.8555    0.0000 C   0  0  0  0  0  0  0  0  0  0  0  0
   -0.6284    1.5229    0.0000 C   0  0  0  0  0  0  0  0  0  0  0  0
   -0.1435    2.1904    0.0000 N   0  0  0  0  0  0  0  0  0  0  0  0
    0.6411    1.9354    0.0000 C   0  0  0  0  0  0  0  0  0  0  0  0
    1.3556    2.3479    0.0000 C   0  0  0  0  0  0  0  0  0  0  0  0
    2.0701    1.9354    0.0000 C   0  0  0  0  0  0  0  0  0  0  0  0
   -1.4534    1.5229    0.0000 C   0  0  0  0  0  0  0  0  0  0  0  0
   -2.2784    1.5229    0.0000 F   0  0  0  0  0  0  0  0  0  0  0  0
   -1.4534    2.3479    0.0000 F   0  0  0  0  0  0  0  0  0  0  0  0
   -1.4534    0.6979    0.0000 F   0  0  0  0  0  0  0  0  0  0  0  0
    6.3569    1.1104    0.0000 C   0  0  0  0  0  0  0  0  0  0  0  0
    7.0714    0.6979    0.0000 C   0  0  0  0  0  0  0  0  0  0  0  0
  1  2  1  0  0  0  0
  2  3  2  0  0  0  0
  3  4  1  0  0  0  0
  4  5  2  0  0  0  0
  5  6  1  0  0  0  0
  6  7  1  0  0  0  0
  7  8  1  0  0  0  0
  8  9  1  0  0  0  0
  9 10  1  0  0  0  0
 10 11  1  0  0  0  0
 11 12  1  0  0  0  0
  7 12  1  0  0  0  0
 11 13  1  0  0  0  0
 13 14  2  0  0  0  0
 14 15  1  0  0  0  0
 15 16  1  0  0  0  0
 16 17  2  0  0  0  0
 17 18  1  0  0  0  0
 18 19  2  0  0  0  0
 15 19  1  0  0  0  0
 19 20  1  0  0  0  0
 20 21  2  0  0  0  0
 13 21  1  0  0  0  0
 17 22  1  0  0  0  0
 22 23  1  0  0  0  0
 22 24  1  0  0  0  0
 22 25  1  0  0  0  0
  5 26  1  0  0  0  0
 26 27  2  0  0  0  0
  2 27  1  0  0  0  0
M  END
> <ID>
CPD_2640

$$$$
CPD_2645
  Mrv1822 09091914012D          

 31 34  0  0  0  0            999 V2000
   -2.1434   -5.3625    0.0000 C   0  0  0  0  0  0  0  0  0  0  0  0
   -2.1434   -6.1875    0.0000 C   0  0  0  0  0  0  0  0  0  0  0  0
   -1.4289   -6.6000    0.0000 C   0  0  0  0  0  0  0  0  0  0  0  0
   -1.4289   -7.4250    0.0000 N   0  0  0  0  0  0  0  0  0  0  0  0
   -2.1434   -7.8375    0.0000 C   0  0  0  0  0  0  0  0  0  0  0  0
   -2.1434   -8.6625    0.0000 C   0  0  0  0  0  0  0  0  0  0  0  0
   -1.4289   -9.0750    0.0000 C   0  0  0  0  0  0  0  0  0  0  0  0
   -0.7145   -8.6625    0.0000 C   0  0  0  0  0  0  0  0  0  0  0  0
    0.0000   -9.0750    0.0000 C   0  0  0  0  0  0  0  0  0  0  0  0
    0.0000   -9.9000    0.0000 C   0  0  0  0  0  0  0  0  0  0  0  0
   -0.7145  -10.3125    0.0000 N   0  0  0  0  0  0  0  0  0  0  0  0
   -1.4289   -9.9000    0.0000 C   0  0  0  0  0  0  0  0  0  0  0  0
   -0.7145  -11.1375    0.0000 C   0  0  0  0  0  0  0  0  0  0  0  0
    0.0000  -11.5500    0.0000 C   0  0  0  0  0  0  0  0  0  0  0  0
    0.0000  -12.3750    0.0000 C   0  0  0  0  0  0  0  0  0  0  0  0
   -0.7145  -12.7875    0.0000 C   0  0  0  0  0  0  0  0  0  0  0  0
   -1.4289  -12.3750    0.0000 C   0  0  0  0  0  0  0  0  0  0  0  0
   -1.4289  -11.5500    0.0000 C   0  0  0  0  0  0  0  0  0  0  0  0
    0.7145  -12.7875    0.0000 C   0  0  0  0  0  0  0  0  0  0  0  0
    0.7145  -13.6125    0.0000 O   0  0  0  0  0  0  0  0  0  0  0  0
    1.4289  -12.3750    0.0000 N   0  0  0  0  0  0  0  0  0  0  0  0
    2.1434  -12.7875    0.0000 C   0  0  0  0  0  0  0  0  0  0  0  0
    2.8579  -12.3750    0.0000 C   0  0  0  0  0  0  0  0  0  0  0  0
    2.8579  -11.5500    0.0000 C   0  0  0  0  0  0  0  0  0  0  0  0
    3.5724  -12.7875    0.0000 C   0  0  0  0  0  0  0  0  0  0  0  0
    3.5724  -13.6125    0.0000 C   0  0  0  0  0  0  0  0  0  0  0  0
    4.2868  -14.0250    0.0000 C   0  0  0  0  0  0  0  0  0  0  0  0
    2.8579  -14.0250    0.0000 C   0  0  0  0  0  0  0  0  0  0  0  0
    2.1434  -13.6125    0.0000 C   0  0  0  0  0  0  0  0  0  0  0  0
   -2.8579   -7.4250    0.0000 C   0  0  0  0  0  0  0  0  0  0  0  0
   -2.8579   -6.6000    0.0000 C   0  0  0  0  0  0  0  0  0  0  0  0
  1  2  1  0  0  0  0
  2  3  2  0  0  0  0
  3  4  1  0  0  0  0
  4  5  2  0  0  0  0
  5  6  1  0  0  0  0
  6  7  1  0  0  0  0
  7  8  1  0  0  0  0
  8  9  1  0  0  0  0
  9 10  1  0  0  0  0
 10 11  1  0  0  0  0
 11 12  1  0  0  0  0
  7 12  1  0  0  0  0
 11 13  1  0  0  0  0
 13 14  2  0  0  0  0
 14 15  1  0  0  0  0
 15 16  2  0  0  0  0
 16 17  1  0  0  0  0
 17 18  2  0  0  0  0
 13 18  1  0  0  0  0
 15 19  1  0  0  0  0
 19 20  2  0  0  0  0
 19 21  1  0  0  0  0
 21 22  1  0  0  0  0
 22 23  2  0  0  0  0
 23 24  1  0  0  0  0
 23 25  1  0  0  0  0
 25 26  2  0  0  0  0
 26 27  1  0  0  0  0
 26 28  1  0  0  0  0
 28 29  2  0  0  0  0
 22 29  1  0  0  0  0
  5 30  1  0  0  0  0
 30 31  2  0  0  0  0
  2 31  1  0  0  0  0
M  END
> <ID>
CPD_2645

$$$$
CPD_2650
  Mrv1822 09091914012D          

 27 28  0  0  1  0            999 V2000
    1.4289    0.8250    0.0000 C   0  0  0  0  0  0  0  0  0  0  0  0
    1.4289   -0.0000    0.0000 N   0  0  0  0  0  0  0  0  0  0  0  0
    0.7145   -0.4125    0.0000 C   0  0  2  0  0  0  0  0  0  0  0  0
    0.0000    0.0000    0.0000 C   0  0  0  0  0  0  0  0  0  0  0  0
    0.7145   -1.2375    0.0000 C   0  0  0  0  0  0  0  0  0  0  0  0
    1.4289   -1.6500    0.0000 C   0  0  0  0  0  0  0  0  0  0  0  0
    1.4289   -2.4750    0.0000 C   0  0  0  0  0  0  0  0  0  0  0  0
    0.7145   -2.8875    0.0000 C   0  0  0  0  0  0  0  0  0  0  0  0
    0.0000   -2.4750    0.0000 C   0  0  0  0  0  0  0  0  0  0  0  0
    0.0000   -1.6500    0.0000 C   0  0  0  0  0  0  0  0  0  0  0  0
   -0.7145   -2.8875    0.0000 N   0  0  0  0  0  0  0  0  0  0  0  0
   -0.7145   -3.7125    0.0000 C   0  0  0  0  0  0  0  0  0  0  0  0
   -1.4289   -4.1250    0.0000 C   0  0  0  0  0  0  0  0  0  0  0  0
   -2.1434   -3.7125    0.0000 N   0  0  0  0  0  0  0  0  0  0  0  0
   -2.1434   -2.8875    0.0000 C   0  0  0  0  0  0  0  0  0  0  0  0
   -1.4289   -2.4750    0.0000 C   0  0  0  0  0  0  0  0  0  0  0  0
   -1.4289   -1.6500    0.0000 C   0  0  0  0  0  0  0  0  0  0  0  0
   -0.7145   -1.2375    0.0000 O   0  0  0  0  0  0  0  0  0  0  0  0
   -2.1434   -1.2375    0.0000 N   0  0  0  0  0  0  0  0  0  0  0  0
   -2.1434   -0.4125    0.0000 C   0  0  0  0  0  0  0  0  0  0  0  0
   -2.8579   -4.1250    0.0000 C   0  0  0  0  0  0  0  0  0  0  0  0
   -2.8579   -4.9500    0.0000 O   0  0  0  0  0  0  0  0  0  0  0  0
   -3.5724   -3.7125    0.0000 O   0  0  0  0  0  0  0  0  0  0  0  0
   -4.2868   -4.1250    0.0000 C   0  0  0  0  0  0  0  0  0  0  0  0
   -5.0013   -4.5375    0.0000 C   0  0  0  0  0  0  0  0  0  0  0  0
   -4.6993   -3.4105    0.0000 C   0  0  0  0  0  0  0  0  0  0  0  0
   -3.8743   -4.8395    0.0000 C   0  0  0  0  0  0  0  0  0  0  0  0
  1  2  1  0  0  0  0
  3  2  1  0  0  0  0
  3  4  1  1  0  0  0
  3  5  1  0  0  0  0
  5  6  2  0  0  0  0
  6  7  1  0  0  0  0
  7  8  2  0  0  0  0
  8  9  1  0  0  0  0
  9 10  2  0  0  0  0
  5 10  1  0  0  0  0
  9 11  1  0  0  0  0
 11 12  1  0  0  0  0
 12 13  1  0  0  0  0
 13 14  1  0  0  0  0
 14 15  1  0  0  0  0
 15 16  1  0  0  0  0
 11 16  1  0  0  0  0
 16 17  1  0  0  0  0
 17 18  2  0  0  0  0
 17 19  1  0  0  0  0
 19 20  1  0  0  0  0
 14 21  1  0  0  0  0
 21 22  2  0  0  0  0
 21 23  1  0  0  0  0
 23 24  1  0  0  0  0
 24 25  1  0  0  0  0
 24 26  1  0  0  0  0
 24 27  1  0  0  0  0
M  END
> <ID>
CPD_2650

$$$$
CPD_2655
  Mrv1822 09091914012D          

 26 27  0  0  0  0            999 V2000
    0.0000    0.8250    0.0000 C   0  0  0  0  0  0  0  0  0  0  0  0
    0.0000   -0.0000    0.0000 N   0  0  0  0  0  0  0  0  0  0  0  0
    0.7145   -0.4125    0.0000 C   0  0  0  0  0  0  0  0  0  0  0  0
    1.4289    0.0000    0.0000 O   0  0  0  0  0  0  0  0  0  0  0  0
    0.7145   -1.2375    0.0000 C   0  0  0  0  0  0  0  0  0  0  0  0
    0.0000   -1.6500    0.0000 C   0  0  0  0  0  0  0  0  0  0  0  0
    0.0000   -2.4750    0.0000 N   0  0  0  0  0  0  0  0  0  0  0  0
    0.7145   -2.8875    0.0000 C   0  0  0  0  0  0  0  0  0  0  0  0
    1.4289   -2.4750    0.0000 C   0  0  0  0  0  0  0  0  0  0  0  0
    1.4289   -1.6500    0.0000 N   0  0  0  0  0  0  0  0  0  0  0  0
    2.1434   -1.2375    0.0000 C   0  0  0  0  0  0  0  0  0  0  0  0
    2.1434   -0.4125    0.0000 C   0  0  0  0  0  0  0  0  0  0  0  0
    2.8579    0.0000    0.0000 C   0  0  0  0  0  0  0  0  0  0  0  0
    2.8579    0.8250    0.0000 Br  0  0  0  0  0  0  0  0  0  0  0  0
    3.5724   -0.4125    0.0000 C   0  0  0  0  0  0  0  0  0  0  0  0
    4.2868    0.0000    0.0000 Br  0  0  0  0  0  0  0  0  0  0  0  0
    3.5724   -1.2375    0.0000 C   0  0  0  0  0  0  0  0  0  0  0  0
    2.8579   -1.6500    0.0000 C   0  0  0  0  0  0  0  0  0  0  0  0
    2.8579   -2.4750    0.0000 C   0  0  0  0  0  0  0  0  0  0  0  0
   -0.7145   -2.8875    0.0000 C   0  0  0  0  0  0  0  0  0  0  0  0
   -1.4289   -2.4750    0.0000 O   0  0  0  0  0  0  0  0  0  0  0  0
   -0.7145   -3.7125    0.0000 O   0  0  0  0  0  0  0  0  0  0  0  0
    0.0000   -4.1250    0.0000 C   0  0  0  0  0  0  0  0  0  0  0  0
    0.7145   -4.5375    0.0000 C   0  0  0  0  0  0  0  0  0  0  0  0
   -0.4125   -4.8395    0.0000 C   0  0  0  0  0  0  0  0  0  0  0  0
    0.4125   -3.4105    0.0000 C   0  0  0  0  0  0  0  0  0  0  0  0
  1  2  1  0  0  0  0
  2  3  1  0  0  0  0
  3  4  2  0  0  0  0
  3  5  1  0  0  0  0
  5  6  1  0  0  0  0
  6  7  1  0  0  0  0
  7  8  1  0  0  0  0
  8  9  1  0  0  0  0
  9 10  1  0  0  0  0
  5 10  1  0  0  0  0
 10 11  1  0  0  0  0
 11 12  2  0  0  0  0
 12 13  1  0  0  0  0
 13 14  1  0  0  0  0
 13 15  2  0  0  0  0
 15 16  1  0  0  0  0
 15 17  1  0  0  0  0
 17 18  2  0  0  0  0
 11 18  1  0  0  0  0
 18 19  1  0  0  0  0
  7 20  1  0  0  0  0
 20 21  2  0  0  0  0
 20 22  1  0  0  0  0
 22 23  1  0  0  0  0
 23 24  1  0  0  0  0
 23 25  1  0  0  0  0
 23 26  1  0  0  0  0
M  END
> <ID>
CPD_2655

$$$$
CPD_2660
  Mrv1822 09091914012D          

 21 22  0  0  0  0            999 V2000
   -0.1105   -2.0625    0.0000 C   0  0  0  0  0  0  0  0  0  0  0  0
    0.7145   -2.0625    0.0000 S   0  0  0  0  0  0  0  0  0  0  0  0
    1.5395   -2.0625    0.0000 O   0  0  0  0  0  0  0  0  0  0  0  0
    0.7145   -2.8875    0.0000 O   0  0  0  0  0  0  0  0  0  0  0  0
    0.7145   -1.2375    0.0000 N   0  0  0  0  0  0  0  0  0  0  0  0
    1.4289   -0.8250    0.0000 C   0  0  0  0  0  0  0  0  0  0  0  0
    2.1434   -1.2375    0.0000 C   0  0  0  0  0  0  0  0  0  0  0  0
    2.8579   -0.8250    0.0000 C   0  0  0  0  0  0  0  0  0  0  0  0
    2.8579    0.0000    0.0000 C   0  0  0  0  0  0  0  0  0  0  0  0
    3.5724    0.4125    0.0000 C   0  0  0  0  0  0  0  0  0  0  0  0
    4.2868    0.0000    0.0000 C   0  0  0  0  0  0  0  0  0  0  0  0
    4.2868   -0.8250    0.0000 N   0  0  0  0  0  0  0  0  0  0  0  0
    3.5724   -1.2375    0.0000 C   0  0  0  0  0  0  0  0  0  0  0  0
    0.0000   -0.8250    0.0000 C   0  0  0  0  0  0  0  0  0  0  0  0
   -0.7145   -1.2375    0.0000 N   0  0  0  0  0  0  0  0  0  0  0  0
   -1.4289   -0.8250    0.0000 C   0  0  0  0  0  0  0  0  0  0  0  0
   -1.4289   -0.0000    0.0000 C   0  0  0  0  0  0  0  0  0  0  0  0
   -0.7145    0.4125    0.0000 C   0  0  0  0  0  0  0  0  0  0  0  0
    0.0000   -0.0000    0.0000 C   0  0  0  0  0  0  0  0  0  0  0  0
   -2.1434    0.4125    0.0000 C   0  0  0  0  0  0  0  0  0  0  0  0
   -2.8579    0.8250    0.0000 N   0  0  0  0  0  0  0  0  0  0  0  0
  1  2  1  0  0  0  0
  2  3  2  0  0  0  0
  2  4  2  0  0  0  0
  2  5  1  0  0  0  0
  5  6  1  0  0  0  0
  6  7  1  0  0  0  0
  7  8  1  0  0  0  0
  8  9  1  0  0  0  0
  9 10  1  0  0  0  0
 10 11  1  0  0  0  0
 11 12  1  0  0  0  0
 12 13  1  0  0  0  0
  8 13  1  0  0  0  0
  5 14  1  0  0  0  0
 14 15  2  0  0  0  0
 15 16  1  0  0  0  0
 16 17  2  0  0  0  0
 17 18  1  0  0  0  0
 18 19  2  0  0  0  0
 14 19  1  0  0  0  0
 17 20  1  0  0  0  0
 20 21  3  0  0  0  0
M  END
> <ID>
CPD_2660

$$$$
CPD_2665
  Mrv1822 09091914012D          

 26 27  0  0  0  0            999 V2000
    2.1434   -0.4125    0.0000 C   0  0  0  0  0  0  0  0  0  0  0  0
    2.1434   -1.2375    0.0000 N   0  0  0  0  0  0  0  0  0  0  0  0
    1.4289   -1.6500    0.0000 C   0  0  0  0  0  0  0  0  0  0  0  0
    2.8579   -1.6500    0.0000 C   0  0  0  0  0  0  0  0  0  0  0  0
    3.5724   -1.2375    0.0000 C   0  0  0  0  0  0  0  0  0  0  0  0
    4.2868   -0.8250    0.0000 N   0  0  0  0  0  0  0  0  0  0  0  0
    2.8579   -2.4750    0.0000 C   0  0  0  0  0  0  0  0  0  0  0  0
    3.5724   -2.8875    0.0000 C   0  0  0  0  0  0  0  0  0  0  0  0
    3.5724   -3.7125    0.0000 C   0  0  0  0  0  0  0  0  0  0  0  0
    4.2868   -4.1250    0.0000 N   0  0  0  0  0  0  0  0  0  0  0  0
    4.2868   -4.9500    0.0000 C   0  0  0  0  0  0  0  0  0  0  0  0
    5.0013   -5.3625    0.0000 C   0  0  0  0  0  0  0  0  0  0  0  0
    5.0013   -6.1875    0.0000 C   0  0  0  0  0  0  0  0  0  0  0  0
    5.7158   -6.6000    0.0000 C   0  0  0  0  0  0  0  0  0  0  0  0
    5.7158   -7.4250    0.0000 C   0  0  0  0  0  0  0  0  0  0  0  0
    5.0013   -7.8375    0.0000 C   0  0  0  0  0  0  0  0  0  0  0  0
    4.2868   -7.4250    0.0000 N   0  0  0  0  0  0  0  0  0  0  0  0
    4.2868   -6.6000    0.0000 C   0  0  0  0  0  0  0  0  0  0  0  0
    5.0013   -3.7125    0.0000 S   0  0  0  0  0  0  0  0  0  0  0  0
    5.7158   -3.3000    0.0000 C   0  0  0  0  0  0  0  0  0  0  0  0
    5.4138   -4.4270    0.0000 O   0  0  0  0  0  0  0  0  0  0  0  0
    4.5888   -2.9980    0.0000 O   0  0  0  0  0  0  0  0  0  0  0  0
    2.8579   -4.1250    0.0000 C   0  0  0  0  0  0  0  0  0  0  0  0
    2.8579   -4.9500    0.0000 Cl  0  0  0  0  0  0  0  0  0  0  0  0
    2.1434   -3.7125    0.0000 C   0  0  0  0  0  0  0  0  0  0  0  0
    2.1434   -2.8875    0.0000 C   0  0  0  0  0  0  0  0  0  0  0  0
  1  2  1  0  0  0  0
  2  3  1  0  0  0  0
  2  4  1  0  0  0  0
  4  5  1  0  0  0  0
  5  6  3  0  0  0  0
  4  7  1  0  0  0  0
  7  8  2  0  0  0  0
  8  9  1  0  0  0  0
  9 10  1  0  0  0  0
 10 11  1  0  0  0  0
 11 12  1  0  0  0  0
 12 13  1  0  0  0  0
 13 14  1  0  0  0  0
 14 15  1  0  0  0  0
 15 16  1  0  0  0  0
 16 17  1  0  0  0  0
 17 18  1  0  0  0  0
 13 18  1  0  0  0  0
 10 19  1  0  0  0  0
 19 20  1  0  0  0  0
 19 21  2  0  0  0  0
 19 22  2  0  0  0  0
  9 23  2  0  0  0  0
 23 24  1  0  0  0  0
 23 25  1  0  0  0  0
 25 26  2  0  0  0  0
  7 26  1  0  0  0  0
M  END
> <ID>
CPD_2665

$$$$
CPD_2670
  Mrv1822 09091914012D          

 22 23  0  0  0  0            999 V2000
   -0.1105   -2.0625    0.0000 C   0  0  0  0  0  0  0  0  0  0  0  0
    0.7145   -2.0625    0.0000 S   0  0  0  0  0  0  0  0  0  0  0  0
    1.5395   -2.0625    0.0000 O   0  0  0  0  0  0  0  0  0  0  0  0
    0.7145   -2.8875    0.0000 O   0  0  0  0  0  0  0  0  0  0  0  0
    0.7145   -1.2375    0.0000 N   0  0  0  0  0  0  0  0  0  0  0  0
    1.4289   -0.8250    0.0000 C   0  0  0  0  0  0  0  0  0  0  0  0
    2.1434   -1.2375    0.0000 C   0  0  0  0  0  0  0  0  0  0  0  0
    2.8579   -0.8250    0.0000 C   0  0  0  0  0  0  0  0  0  0  0  0
    2.8579    0.0000    0.0000 C   0  0  0  0  0  0  0  0  0  0  0  0
    3.5724    0.4125    0.0000 C   0  0  0  0  0  0  0  0  0  0  0  0
    4.2868    0.0000    0.0000 C   0  0  0  0  0  0  0  0  0  0  0  0
    4.2868   -0.8250    0.0000 N   0  0  0  0  0  0  0  0  0  0  0  0
    3.5724   -1.2375    0.0000 C   0  0  0  0  0  0  0  0  0  0  0  0
    0.0000   -0.8250    0.0000 C   0  0  0  0  0  0  0  0  0  0  0  0
   -0.7145   -1.2375    0.0000 C   0  0  0  0  0  0  0  0  0  0  0  0
   -0.7145   -2.0625    0.0000 Br  0  0  0  0  0  0  0  0  0  0  0  0
   -1.4289   -0.8250    0.0000 C   0  0  0  0  0  0  0  0  0  0  0  0
   -1.4289   -0.0000    0.0000 C   0  0  0  0  0  0  0  0  0  0  0  0
   -0.7145    0.4125    0.0000 C   0  0  0  0  0  0  0  0  0  0  0  0
    0.0000   -0.0000    0.0000 C   0  0  0  0  0  0  0  0  0  0  0  0
    0.7145    0.4125    0.0000 C   0  0  0  0  0  0  0  0  0  0  0  0
    1.4289    0.0000    0.0000 O   0  0  0  0  0  0  0  0  0  0  0  0
  1  2  1  0  0  0  0
  2  3  2  0  0  0  0
  2  4  2  0  0  0  0
  2  5  1  0  0  0  0
  5  6  1  0  0  0  0
  6  7  1  0  0  0  0
  7  8  1  0  0  0  0
  8  9  1  0  0  0  0
  9 10  1  0  0  0  0
 10 11  1  0  0  0  0
 11 12  1  0  0  0  0
 12 13  1  0  0  0  0
  8 13  1  0  0  0  0
  5 14  1  0  0  0  0
 14 15  2  0  0  0  0
 15 16  1  0  0  0  0
 15 17  1  0  0  0  0
 17 18  2  0  0  0  0
 18 19  1  0  0  0  0
 19 20  2  0  0  0  0
 14 20  1  0  0  0  0
 20 21  1  0  0  0  0
 21 22  1  0  0  0  0
M  END
> <ID>
CPD_2670

$$$$
CPD_2675
  Mrv1822 09091914012D          

 30 32  0  0  0  0            999 V2000
    3.5724   -1.2375    0.0000 C   0  0  0  0  0  0  0  0  0  0  0  0
    2.8579   -0.8250    0.0000 C   0  0  0  0  0  0  0  0  0  0  0  0
    2.1434   -1.2375    0.0000 C   0  0  0  0  0  0  0  0  0  0  0  0
    1.4289   -0.8250    0.0000 C   0  0  0  0  0  0  0  0  0  0  0  0
    2.1434   -2.0625    0.0000 C   0  0  0  0  0  0  0  0  0  0  0  0
    1.4289   -2.4750    0.0000 C   0  0  0  0  0  0  0  0  0  0  0  0
    1.4289   -3.3000    0.0000 C   0  0  0  0  0  0  0  0  0  0  0  0
    2.1434   -3.7125    0.0000 N   0  0  0  0  0  0  0  0  0  0  0  0
    2.8579   -3.3000    0.0000 C   0  0  0  0  0  0  0  0  0  0  0  0
    2.8579   -2.4750    0.0000 N   0  0  0  0  0  0  0  0  0  0  0  0
    0.7145   -2.0625    0.0000 N   0  0  0  0  0  0  0  0  0  0  0  0
    0.0000   -2.4750    0.0000 C   0  0  0  0  0  0  0  0  0  0  0  0
    0.0000   -3.3000    0.0000 C   0  0  0  0  0  0  0  0  0  0  0  0
    0.7145   -3.7125    0.0000 C   0  0  0  0  0  0  0  0  0  0  0  0
   -0.7145   -3.7125    0.0000 C   0  0  0  0  0  0  0  0  0  0  0  0
   -1.4289   -3.3000    0.0000 C   0  0  0  0  0  0  0  0  0  0  0  0
   -1.4289   -2.4750    0.0000 C   0  0  0  0  0  0  0  0  0  0  0  0
   -2.1434   -2.0625    0.0000 C   0  0  0  0  0  0  0  0  0  0  0  0
   -0.7145   -2.0625    0.0000 C   0  0  0  0  0  0  0  0  0  0  0  0
    0.7145   -1.2375    0.0000 S   0  0  0  0  0  0  0  0  0  0  0  0
    1.5395   -1.2375    0.0000 O   0  0  0  0  0  0  0  0  0  0  0  0
   -0.1105   -1.2375    0.0000 O   0  0  0  0  0  0  0  0  0  0  0  0
    0.7145   -0.4125    0.0000 C   0  0  0  0  0  0  0  0  0  0  0  0
    0.0000    0.0000    0.0000 C   0  0  0  0  0  0  0  0  0  0  0  0
    0.0000    0.8250    0.0000 C   0  0  0  0  0  0  0  0  0  0  0  0
    0.7145    1.2375    0.0000 C   0  0  0  0  0  0  0  0  0  0  0  0
    0.7145    2.0625    0.0000 O   0  0  0  0  0  0  0  0  0  0  0  0
    1.4289    2.4750    0.0000 C   0  0  0  0  0  0  0  0  0  0  0  0
    1.4289    0.8250    0.0000 C   0  0  0  0  0  0  0  0  0  0  0  0
    1.4289    0.0000    0.0000 C   0  0  0  0  0  0  0  0  0  0  0  0
  1  2  1  0  0  0  0
  2  3  1  0  0  0  0
  3  4  1  0  0  0  0
  3  5  1  0  0  0  0
  5  6  2  0  0  0  0
  6  7  1  0  0  0  0
  7  8  2  0  0  0  0
  8  9  1  0  0  0  0
  9 10  2  0  0  0  0
  5 10  1  0  0  0  0
  6 11  1  0  0  0  0
 11 12  1  0  0  0  0
 12 13  2  0  0  0  0
 13 14  1  0  0  0  0
 13 15  1  0  0  0  0
 15 16  2  0  0  0  0
 16 17  1  0  0  0  0
 17 18  1  0  0  0  0
 17 19  2  0  0  0  0
 12 19  1  0  0  0  0
 11 20  1  0  0  0  0
 20 21  2  0  0  0  0
 20 22  2  0  0  0  0
 20 23  1  0  0  0  0
 23 24  2  0  0  0  0
 24 25  1  0  0  0  0
 25 26  2  0  0  0  0
 26 27  1  0  0  0  0
 27 28  1  0  0  0  0
 26 29  1  0  0  0  0
 29 30  2  0  0  0  0
 23 30  1  0  0  0  0
M  END
> <ID>
CPD_2675

$$$$
CPD_2680
  Mrv1822 09091914012D          

 34 36  0  0  0  0            999 V2000
    0.0000   -0.8250    0.0000 C   0  0  0  0  0  0  0  0  0  0  0  0
   -0.7145   -1.2375    0.0000 O   0  0  0  0  0  0  0  0  0  0  0  0
   -0.7145   -2.0625    0.0000 C   0  0  0  0  0  0  0  0  0  0  0  0
    0.0000   -2.4750    0.0000 C   0  0  0  0  0  0  0  0  0  0  0  0
    0.0000   -3.3000    0.0000 C   0  0  0  0  0  0  0  0  0  0  0  0
   -0.7145   -3.7125    0.0000 C   0  0  0  0  0  0  0  0  0  0  0  0
   -0.7145   -4.5375    0.0000 Cl  0  0  0  0  0  0  0  0  0  0  0  0
   -1.4289   -3.3000    0.0000 C   0  0  0  0  0  0  0  0  0  0  0  0
   -1.4289   -2.4750    0.0000 C   0  0  0  0  0  0  0  0  0  0  0  0
   -2.1434   -2.0625    0.0000 N   0  0  0  0  0  0  0  0  0  0  0  0
   -2.1434   -1.2375    0.0000 C   0  0  0  0  0  0  0  0  0  0  0  0
   -2.8579   -0.8250    0.0000 C   0  0  0  0  0  0  0  0  0  0  0  0
   -2.8579    0.0000    0.0000 C   0  0  0  0  0  0  0  0  0  0  0  0
   -2.1434    0.4125    0.0000 C   0  0  0  0  0  0  0  0  0  0  0  0
   -1.4289   -0.0000    0.0000 C   0  0  0  0  0  0  0  0  0  0  0  0
   -0.7145    0.4125    0.0000 C   0  0  0  0  0  0  0  0  0  0  0  0
   -0.7145    1.2375    0.0000 C   0  0  0  0  0  0  0  0  0  0  0  0
    0.0000    1.6500    0.0000 O   0  0  0  0  0  0  0  0  0  0  0  0
   -1.4289    1.6500    0.0000 O   0  0  0  0  0  0  0  0  0  0  0  0
   -1.4289   -0.8250    0.0000 C   0  0  0  0  0  0  0  0  0  0  0  0
   -3.5724    0.4125    0.0000 C   0  0  0  0  0  0  0  0  0  0  0  0
   -4.2868    0.8250    0.0000 F   0  0  0  0  0  0  0  0  0  0  0  0
   -3.1599    1.1270    0.0000 F   0  0  0  0  0  0  0  0  0  0  0  0
   -3.9849   -0.3020    0.0000 F   0  0  0  0  0  0  0  0  0  0  0  0
   -2.8579   -2.4750    0.0000 S   0  0  0  0  0  0  0  0  0  0  0  0
   -3.2704   -1.7605    0.0000 O   0  0  0  0  0  0  0  0  0  0  0  0
   -2.4454   -3.1895    0.0000 O   0  0  0  0  0  0  0  0  0  0  0  0
   -3.5724   -2.8875    0.0000 C   0  0  0  0  0  0  0  0  0  0  0  0
   -3.5724   -3.7125    0.0000 C   0  0  0  0  0  0  0  0  0  0  0  0
   -4.2868   -4.1250    0.0000 C   0  0  0  0  0  0  0  0  0  0  0  0
   -5.0013   -3.7125    0.0000 C   0  0  0  0  0  0  0  0  0  0  0  0
   -5.7158   -4.1250    0.0000 F   0  0  0  0  0  0  0  0  0  0  0  0
   -5.0013   -2.8875    0.0000 C   0  0  0  0  0  0  0  0  0  0  0  0
   -4.2868   -2.4750    0.0000 C   0  0  0  0  0  0  0  0  0  0  0  0
  1  2  1  0  0  0  0
  2  3  1  0  0  0  0
  3  4  2  0  0  0  0
  4  5  1  0  0  0  0
  5  6  2  0  0  0  0
  6  7  1  0  0  0  0
  6  8  1  0  0  0  0
  8  9  2  0  0  0  0
  3  9  1  0  0  0  0
  9 10  1  0  0  0  0
 10 11  1  0  0  0  0
 11 12  2  0  0  0  0
 12 13  1  0  0  0  0
 13 14  2  0  0  0  0
 14 15  1  0  0  0  0
 15 16  1  0  0  0  0
 16 17  1  0  0  0  0
 17 18  1  0  0  0  0
 17 19  2  0  0  0  0
 15 20  2  0  0  0  0
 11 20  1  0  0  0  0
 13 21  1  0  0  0  0
 21 22  1  0  0  0  0
 21 23  1  0  0  0  0
 21 24  1  0  0  0  0
 10 25  1  0  0  0  0
 25 26  2  0  0  0  0
 25 27  2  0  0  0  0
 25 28  1  0  0  0  0
 28 29  2  0  0  0  0
 29 30  1  0  0  0  0
 30 31  2  0  0  0  0
 31 32  1  0  0  0  0
 31 33  1  0  0  0  0
 33 34  2  0  0  0  0
 28 34  1  0  0  0  0
M  END
> <ID>
CPD_2680

$$$$
CPD_2685
  Mrv1822 09091914012D          

 34 37  0  0  0  0            999 V2000
    1.9233    3.5854    0.0000 C   0  0  0  0  0  0  0  0  0  0  0  0
    2.6378    3.1729    0.0000 O   0  0  0  0  0  0  0  0  0  0  0  0
    3.3523    3.5854    0.0000 C   0  0  0  0  0  0  0  0  0  0  0  0
    3.3523    4.4104    0.0000 C   0  0  0  0  0  0  0  0  0  0  0  0
    4.0668    4.8229    0.0000 C   0  0  0  0  0  0  0  0  0  0  0  0
    4.7812    4.4104    0.0000 C   0  0  0  0  0  0  0  0  0  0  0  0
    5.4957    4.8229    0.0000 Cl  0  0  0  0  0  0  0  0  0  0  0  0
    4.7812    3.5854    0.0000 C   0  0  0  0  0  0  0  0  0  0  0  0
    4.0668    3.1729    0.0000 C   0  0  0  0  0  0  0  0  0  0  0  0
    4.0668    2.3479    0.0000 N   0  0  0  0  0  0  0  0  0  0  0  0
    3.3523    1.9354    0.0000 C   0  0  0  0  0  0  0  0  0  0  0  0
    3.3523    1.1104    0.0000 C   0  0  0  0  0  0  0  0  0  0  0  0
    2.6378    0.6979    0.0000 C   0  0  0  0  0  0  0  0  0  0  0  0
    1.9233    1.1104    0.0000 C   0  0  0  0  0  0  0  0  0  0  0  0
    1.1387    0.8555    0.0000 N   0  0  0  0  0  0  0  0  0  0  0  0
    0.6538    1.5229    0.0000 N   0  0  0  0  0  0  0  0  0  0  0  0
    1.1387    2.1904    0.0000 C   0  0  0  0  0  0  0  0  0  0  0  0
    0.8838    2.9750    0.0000 O   0  0  0  0  0  0  0  0  0  0  0  0
    1.9233    1.9354    0.0000 C   0  0  0  0  0  0  0  0  0  0  0  0
    2.6378    2.3479    0.0000 C   0  0  0  0  0  0  0  0  0  0  0  0
   -0.1712    1.5229    0.0000 C   0  0  0  0  0  0  0  0  0  0  0  0
   -0.9962    1.5229    0.0000 C   0  0  0  0  0  0  0  0  0  0  0  0
   -0.1712    0.6979    0.0000 C   0  0  0  0  0  0  0  0  0  0  0  0
   -0.1712    2.3479    0.0000 C   0  0  0  0  0  0  0  0  0  0  0  0
    4.7812    1.9354    0.0000 S   0  0  0  0  0  0  0  0  0  0  0  0
    4.3687    1.2210    0.0000 O   0  0  0  0  0  0  0  0  0  0  0  0
    5.1937    2.6499    0.0000 O   0  0  0  0  0  0  0  0  0  0  0  0
    5.4957    1.5229    0.0000 C   0  0  0  0  0  0  0  0  0  0  0  0
    6.2102    1.9354    0.0000 C   0  0  0  0  0  0  0  0  0  0  0  0
    6.9246    1.5229    0.0000 C   0  0  0  0  0  0  0  0  0  0  0  0
    6.9246    0.6979    0.0000 C   0  0  0  0  0  0  0  0  0  0  0  0
    7.6391    0.2854    0.0000 F   0  0  0  0  0  0  0  0  0  0  0  0
    6.2102    0.2854    0.0000 C   0  0  0  0  0  0  0  0  0  0  0  0
    5.4957    0.6979    0.0000 C   0  0  0  0  0  0  0  0  0  0  0  0
  1  2  1  0  0  0  0
  2  3  1  0  0  0  0
  3  4  2  0  0  0  0
  4  5  1  0  0  0  0
  5  6  2  0  0  0  0
  6  7  1  0  0  0  0
  6  8  1  0  0  0  0
  8  9  2  0  0  0  0
  3  9  1  0  0  0  0
  9 10  1  0  0  0  0
 10 11  1  0  0  0  0
 11 12  2  0  0  0  0
 12 13  1  0  0  0  0
 13 14  2  0  0  0  0
 14 15  1  0  0  0  0
 15 16  1  0  0  0  0
 16 17  1  0  0  0  0
 17 18  2  0  0  0  0
 17 19  1  0  0  0  0
 14 19  1  0  0  0  0
 19 20  2  0  0  0  0
 11 20  1  0  0  0  0
 16 21  1  0  0  0  0
 21 22  1  0  0  0  0
 21 23  1  0  0  0  0
 21 24  1  0  0  0  0
 10 25  1  0  0  0  0
 25 26  2  0  0  0  0
 25 27  2  0  0  0  0
 25 28  1  0  0  0  0
 28 29  2  0  0  0  0
 29 30  1  0  0  0  0
 30 31  2  0  0  0  0
 31 32  1  0  0  0  0
 31 33  1  0  0  0  0
 33 34  2  0  0  0  0
 28 34  1  0  0  0  0
M  END
> <ID>
CPD_2685

$$$$
CPD_2690
  Mrv1822 09091914012D          

 32 34  0  0  1  0            999 V2000
    1.4289   -7.4250    0.0000 N   0  0  0  0  0  0  0  0  0  0  0  0
    0.7145   -7.8375    0.0000 C   0  0  1  0  0  0  0  0  0  0  0  0
    0.7145   -8.6625    0.0000 C   0  0  0  0  0  0  0  0  0  0  0  0
    1.4289   -9.0750    0.0000 C   0  0  0  0  0  0  0  0  0  0  0  0
    1.4289   -9.9000    0.0000 O   0  0  0  0  0  0  0  0  0  0  0  0
    0.0000   -7.4250    0.0000 C   0  0  0  0  0  0  0  0  0  0  0  0
   -0.7145   -7.8375    0.0000 C   0  0  0  0  0  0  0  0  0  0  0  0
   -1.4289   -7.4250    0.0000 C   0  0  0  0  0  0  0  0  0  0  0  0
   -1.4289   -6.6000    0.0000 C   0  0  0  0  0  0  0  0  0  0  0  0
   -0.7145   -6.1875    0.0000 C   0  0  0  0  0  0  0  0  0  0  0  0
   -0.7145   -5.3625    0.0000 N   0  0  0  0  0  0  0  0  0  0  0  0
    0.0000   -4.9500    0.0000 C   0  0  0  0  0  0  0  0  0  0  0  0
    0.0000   -4.1250    0.0000 C   0  0  0  0  0  0  0  0  0  0  0  0
    0.7145   -3.7125    0.0000 C   0  0  0  0  0  0  0  0  0  0  0  0
    1.4289   -4.1250    0.0000 C   0  0  0  0  0  0  0  0  0  0  0  0
    1.4289   -4.9500    0.0000 C   0  0  0  0  0  0  0  0  0  0  0  0
    0.7145   -5.3625    0.0000 C   0  0  0  0  0  0  0  0  0  0  0  0
    2.1434   -3.7125    0.0000 C   0  0  0  0  0  0  0  0  0  0  0  0
    2.1434   -2.8875    0.0000 O   0  0  0  0  0  0  0  0  0  0  0  0
    2.8579   -4.1250    0.0000 O   0  0  0  0  0  0  0  0  0  0  0  0
    3.5724   -3.7125    0.0000 C   0  0  0  0  0  0  0  0  0  0  0  0
    4.2868   -4.1250    0.0000 C   0  0  0  0  0  0  0  0  0  0  0  0
    4.2868   -4.9500    0.0000 O   0  0  0  0  0  0  0  0  0  0  0  0
    5.0013   -3.7125    0.0000 N   0  0  0  0  0  0  0  0  0  0  0  0
    5.7158   -4.1250    0.0000 C   0  0  0  0  0  0  0  0  0  0  0  0
    6.4302   -3.7125    0.0000 C   0  0  0  0  0  0  0  0  0  0  0  0
    7.1447   -4.1250    0.0000 C   0  0  0  0  0  0  0  0  0  0  0  0
    7.1447   -4.9500    0.0000 C   0  0  0  0  0  0  0  0  0  0  0  0
    7.8592   -5.3625    0.0000 Cl  0  0  0  0  0  0  0  0  0  0  0  0
    6.4302   -5.3625    0.0000 C   0  0  0  0  0  0  0  0  0  0  0  0
    5.7158   -4.9500    0.0000 C   0  0  0  0  0  0  0  0  0  0  0  0
    0.0000   -6.6000    0.0000 C   0  0  0  0  0  0  0  0  0  0  0  0
  2  1  1  1  0  0  0
  2  3  1  0  0  0  0
  3  4  1  0  0  0  0
  4  5  1  0  0  0  0
  2  6  1  0  0  0  0
  6  7  2  0  0  0  0
  7  8  1  0  0  0  0
  8  9  2  0  0  0  0
  9 10  1  0  0  0  0
 10 11  1  0  0  0  0
 11 12  1  0  0  0  0
 12 13  2  0  0  0  0
 13 14  1  0  0  0  0
 14 15  2  0  0  0  0
 15 16  1  0  0  0  0
 16 17  2  0  0  0  0
 12 17  1  0  0  0  0
 15 18  1  0  0  0  0
 18 19  2  0  0  0  0
 18 20  1  0  0  0  0
 20 21  1  0  0  0  0
 21 22  1  0  0  0  0
 22 23  2  0  0  0  0
 22 24  1  0  0  0  0
 24 25  1  0  0  0  0
 25 26  2  0  0  0  0
 26 27  1  0  0  0  0
 27 28  2  0  0  0  0
 28 29  1  0  0  0  0
 28 30  1  0  0  0  0
 30 31  2  0  0  0  0
 25 31  1  0  0  0  0
 10 32  2  0  0  0  0
  6 32  1  0  0  0  0
M  END
> <ID>
CPD_2690

$$$$
CPD_2695
  Mrv1822 09091914012D          

 22 24  0  0  0  0            999 V2000
   -3.5724    1.2375    0.0000 O   0  0  0  0  0  0  0  0  0  0  0  0
   -2.8579    0.8250    0.0000 C   0  0  0  0  0  0  0  0  0  0  0  0
   -2.1434    1.2375    0.0000 O   0  0  0  0  0  0  0  0  0  0  0  0
   -2.8579    0.0000    0.0000 C   0  0  0  0  0  0  0  0  0  0  0  0
   -2.1434   -0.4125    0.0000 C   0  0  0  0  0  0  0  0  0  0  0  0
   -2.1434   -1.2375    0.0000 C   0  0  0  0  0  0  0  0  0  0  0  0
   -1.4289   -1.6500    0.0000 N   0  0  0  0  0  0  0  0  0  0  0  0
   -0.7145   -1.2375    0.0000 C   0  0  0  0  0  0  0  0  0  0  0  0
    0.0000   -1.6500    0.0000 N   0  0  0  0  0  0  0  0  0  0  0  0
    0.7145   -1.2375    0.0000 C   0  0  0  0  0  0  0  0  0  0  0  0
    0.7145   -0.4125    0.0000 C   0  0  0  0  0  0  0  0  0  0  0  0
    1.4289   -0.0000    0.0000 N   0  0  0  0  0  0  0  0  0  0  0  0
    2.1434   -0.4125    0.0000 C   0  0  0  0  0  0  0  0  0  0  0  0
    2.1434   -1.2375    0.0000 C   0  0  0  0  0  0  0  0  0  0  0  0
    1.4289   -1.6500    0.0000 N   0  0  0  0  0  0  0  0  0  0  0  0
    0.0000   -0.0000    0.0000 C   0  0  0  0  0  0  0  0  0  0  0  0
    0.0000    0.8250    0.0000 O   0  0  0  0  0  0  0  0  0  0  0  0
   -0.7145   -0.4125    0.0000 N   0  0  0  0  0  0  0  0  0  0  0  0
   -2.8579   -1.6500    0.0000 C   0  0  0  0  0  0  0  0  0  0  0  0
   -3.5724   -1.2375    0.0000 C   0  0  0  0  0  0  0  0  0  0  0  0
   -3.5724   -0.4125    0.0000 C   0  0  0  0  0  0  0  0  0  0  0  0
   -4.2868    0.0000    0.0000 F   0  0  0  0  0  0  0  0  0  0  0  0
  1  2  1  0  0  0  0
  2  3  2  0  0  0  0
  2  4  1  0  0  0  0
  4  5  2  0  0  0  0
  5  6  1  0  0  0  0
  6  7  1  0  0  0  0
  7  8  1  0  0  0  0
  8  9  2  0  0  0  0
  9 10  1  0  0  0  0
 10 11  2  0  0  0  0
 11 12  1  0  0  0  0
 12 13  2  0  0  0  0
 13 14  1  0  0  0  0
 14 15  2  0  0  0  0
 10 15  1  0  0  0  0
 11 16  1  0  0  0  0
 16 17  1  0  0  0  0
 16 18  2  0  0  0  0
  8 18  1  0  0  0  0
  6 19  2  0  0  0  0
 19 20  1  0  0  0  0
 20 21  2  0  0  0  0
  4 21  1  0  0  0  0
 21 22  1  0  0  0  0
M  END
> <ID>
CPD_2695

$$$$
CPD_2700
  Mrv1822 09091914012D          

 29 32  0  0  0  0            999 V2000
   -7.8592   -1.2375    0.0000 C   0  0  0  0  0  0  0  0  0  0  0  0
   -7.1447   -0.8250    0.0000 C   0  0  0  0  0  0  0  0  0  0  0  0
   -7.1447    0.0000    0.0000 C   0  0  0  0  0  0  0  0  0  0  0  0
   -6.4302    0.4125    0.0000 C   0  0  0  0  0  0  0  0  0  0  0  0
   -5.7158    0.0000    0.0000 C   0  0  0  0  0  0  0  0  0  0  0  0
   -5.0013    0.4125    0.0000 N   0  0  0  0  0  0  0  0  0  0  0  0
   -4.2868    0.0000    0.0000 S   0  0  0  0  0  0  0  0  0  0  0  0
   -4.6993   -0.7145    0.0000 O   0  0  0  0  0  0  0  0  0  0  0  0
   -3.8743    0.7145    0.0000 O   0  0  0  0  0  0  0  0  0  0  0  0
   -3.5724   -0.4125    0.0000 C   0  0  0  0  0  0  0  0  0  0  0  0
   -2.8579    0.0000    0.0000 C   0  0  0  0  0  0  0  0  0  0  0  0
   -2.1434   -0.4125    0.0000 C   0  0  0  0  0  0  0  0  0  0  0  0
   -2.1434   -1.2375    0.0000 C   0  0  0  0  0  0  0  0  0  0  0  0
   -1.4289   -1.6500    0.0000 N   0  0  0  0  0  0  0  0  0  0  0  0
   -0.7145   -1.2375    0.0000 C   0  0  0  0  0  0  0  0  0  0  0  0
    0.0000   -1.6500    0.0000 N   0  0  0  0  0  0  0  0  0  0  0  0
    0.7145   -1.2375    0.0000 C   0  0  0  0  0  0  0  0  0  0  0  0
    0.7145   -0.4125    0.0000 C   0  0  0  0  0  0  0  0  0  0  0  0
    1.4289   -0.0000    0.0000 N   0  0  0  0  0  0  0  0  0  0  0  0
    2.1434   -0.4125    0.0000 C   0  0  0  0  0  0  0  0  0  0  0  0
    2.1434   -1.2375    0.0000 C   0  0  0  0  0  0  0  0  0  0  0  0
    1.4289   -1.6500    0.0000 N   0  0  0  0  0  0  0  0  0  0  0  0
    0.0000   -0.0000    0.0000 C   0  0  0  0  0  0  0  0  0  0  0  0
    0.0000    0.8250    0.0000 O   0  0  0  0  0  0  0  0  0  0  0  0
   -0.7145   -0.4125    0.0000 N   0  0  0  0  0  0  0  0  0  0  0  0
   -2.8579   -1.6500    0.0000 C   0  0  0  0  0  0  0  0  0  0  0  0
   -3.5724   -1.2375    0.0000 C   0  0  0  0  0  0  0  0  0  0  0  0
   -5.7158   -0.8250    0.0000 C   0  0  0  0  0  0  0  0  0  0  0  0
   -6.4302   -1.2375    0.0000 C   0  0  0  0  0  0  0  0  0  0  0  0
  1  2  1  0  0  0  0
  2  3  2  0  0  0  0
  3  4  1  0  0  0  0
  4  5  2  0  0  0  0
  5  6  1  0  0  0  0
  6  7  1  0  0  0  0
  7  8  2  0  0  0  0
  7  9  2  0  0  0  0
  7 10  1  0  0  0  0
 10 11  2  0  0  0  0
 11 12  1  0  0  0  0
 12 13  2  0  0  0  0
 13 14  1  0  0  0  0
 14 15  1  0  0  0  0
 15 16  2  0  0  0  0
 16 17  1  0  0  0  0
 17 18  2  0  0  0  0
 18 19  1  0  0  0  0
 19 20  2  0  0  0  0
 20 21  1  0  0  0  0
 21 22  2  0  0  0  0
 17 22  1  0  0  0  0
 18 23  1  0  0  0  0
 23 24  1  0  0  0  0
 23 25  2  0  0  0  0
 15 25  1  0  0  0  0
 13 26  1  0  0  0  0
 26 27  2  0  0  0  0
 10 27  1  0  0  0  0
  5 28  1  0  0  0  0
 28 29  2  0  0  0  0
  2 29  1  0  0  0  0
M  END
> <ID>
CPD_2700

$$$$
CPD_2705
  Mrv1822 09091914012D          

 25 28  0  0  0  0            999 V2000
    0.0000    0.8250    0.0000 O   0  0  0  0  0  0  0  0  0  0  0  0
    0.0000   -0.0000    0.0000 C   0  0  0  0  0  0  0  0  0  0  0  0
   -0.7145   -0.4125    0.0000 N   0  0  0  0  0  0  0  0  0  0  0  0
   -0.7145   -1.2375    0.0000 C   0  0  0  0  0  0  0  0  0  0  0  0
   -1.4289   -1.6500    0.0000 N   0  0  0  0  0  0  0  0  0  0  0  0
   -1.4289   -2.4750    0.0000 C   0  0  0  0  0  0  0  0  0  0  0  0
   -2.1434   -2.8875    0.0000 C   0  0  0  0  0  0  0  0  0  0  0  0
   -2.1434   -3.7125    0.0000 C   0  0  0  0  0  0  0  0  0  0  0  0
   -1.4289   -4.1250    0.0000 C   0  0  0  0  0  0  0  0  0  0  0  0
   -0.7145   -3.7125    0.0000 C   0  0  0  0  0  0  0  0  0  0  0  0
   -0.7145   -2.8875    0.0000 N   0  0  0  0  0  0  0  0  0  0  0  0
   -2.8579   -2.4750    0.0000 C   0  0  0  0  0  0  0  0  0  0  0  0
   -2.8579   -1.6500    0.0000 C   0  0  0  0  0  0  0  0  0  0  0  0
   -3.5724   -1.2375    0.0000 N   0  0  0  0  0  0  0  0  0  0  0  0
   -4.2868   -1.6500    0.0000 C   0  0  0  0  0  0  0  0  0  0  0  0
   -4.2868   -2.4750    0.0000 C   0  0  0  0  0  0  0  0  0  0  0  0
   -5.0013   -2.8875    0.0000 Br  0  0  0  0  0  0  0  0  0  0  0  0
   -3.5724   -2.8875    0.0000 C   0  0  0  0  0  0  0  0  0  0  0  0
    0.0000   -1.6500    0.0000 N   0  0  0  0  0  0  0  0  0  0  0  0
    0.7145   -1.2375    0.0000 C   0  0  0  0  0  0  0  0  0  0  0  0
    0.7145   -0.4125    0.0000 C   0  0  0  0  0  0  0  0  0  0  0  0
    1.4289   -0.0000    0.0000 N   0  0  0  0  0  0  0  0  0  0  0  0
    2.1434   -0.4125    0.0000 C   0  0  0  0  0  0  0  0  0  0  0  0
    2.1434   -1.2375    0.0000 C   0  0  0  0  0  0  0  0  0  0  0  0
    1.4289   -1.6500    0.0000 N   0  0  0  0  0  0  0  0  0  0  0  0
  1  2  1  0  0  0  0
  2  3  2  0  0  0  0
  3  4  1  0  0  0  0
  4  5  1  0  0  0  0
  5  6  1  0  0  0  0
  6  7  2  0  0  0  0
  7  8  1  0  0  0  0
  8  9  2  0  0  0  0
  9 10  1  0  0  0  0
 10 11  2  0  0  0  0
  6 11  1  0  0  0  0
  7 12  1  0  0  0  0
 12 13  2  0  0  0  0
 13 14  1  0  0  0  0
 14 15  2  0  0  0  0
 15 16  1  0  0  0  0
 16 17  1  0  0  0  0
 16 18  2  0  0  0  0
 12 18  1  0  0  0  0
  4 19  2  0  0  0  0
 19 20  1  0  0  0  0
 20 21  2  0  0  0  0
  2 21  1  0  0  0  0
 21 22  1  0  0  0  0
 22 23  2  0  0  0  0
 23 24  1  0  0  0  0
 24 25  2  0  0  0  0
 20 25  1  0  0  0  0
M  END
> <ID>
CPD_2705

$$$$
CPD_2710
  Mrv1822 09091914012D          

 30 32  0  0  1  0            999 V2000
    1.6204    2.5263    0.0000 C   0  0  0  0  0  0  0  0  0  0  0  0
    2.0329    1.8118    0.0000 C   0  0  0  0  0  0  0  0  0  0  0  0
    2.8579    1.8118    0.0000 N   0  0  0  0  0  0  0  0  0  0  0  0
    3.2704    1.0974    0.0000 C   0  0  0  0  0  0  0  0  0  0  0  0
    2.8579    0.3829    0.0000 N   0  0  0  0  0  0  0  0  0  0  0  0
    3.2704   -0.3316    0.0000 C   0  0  0  0  0  0  0  0  0  0  0  0
    2.8579   -1.0461    0.0000 N   0  0  0  0  0  0  0  0  0  0  0  0
    3.2704   -1.7605    0.0000 C   0  0  2  0  0  0  0  0  0  0  0  0
    2.8579   -2.4750    0.0000 C   0  0  0  0  0  0  0  0  0  0  0  0
    2.0329   -2.4750    0.0000 C   0  0  0  0  0  0  0  0  0  0  0  0
    1.6204   -3.1895    0.0000 C   0  0  0  0  0  0  0  0  0  0  0  0
    0.7954   -3.1895    0.0000 C   0  0  0  0  0  0  0  0  0  0  0  0
    0.3829   -2.4750    0.0000 C   0  0  0  0  0  0  0  0  0  0  0  0
   -0.4421   -2.4750    0.0000 F   0  0  0  0  0  0  0  0  0  0  0  0
    0.7954   -1.7605    0.0000 C   0  0  0  0  0  0  0  0  0  0  0  0
    1.6204   -1.7605    0.0000 C   0  0  0  0  0  0  0  0  0  0  0  0
    4.0954   -1.7605    0.0000 C   0  0  0  0  0  0  0  0  0  0  0  0
    4.5079   -1.0461    0.0000 O   0  0  0  0  0  0  0  0  0  0  0  0
    4.5079   -2.4750    0.0000 O   0  0  0  0  0  0  0  0  0  0  0  0
    5.3329   -2.4750    0.0000 C   0  0  0  0  0  0  0  0  0  0  0  0
    5.7454   -3.1895    0.0000 C   0  0  0  0  0  0  0  0  0  0  0  0
    6.5704   -3.1895    0.0000 C   0  0  0  0  0  0  0  0  0  0  0  0
    6.9829   -3.9039    0.0000 C   0  0  0  0  0  0  0  0  0  0  0  0
    6.5704   -4.6184    0.0000 C   0  0  0  0  0  0  0  0  0  0  0  0
    5.7454   -4.6184    0.0000 C   0  0  0  0  0  0  0  0  0  0  0  0
    5.3329   -3.9039    0.0000 C   0  0  0  0  0  0  0  0  0  0  0  0
    4.0954   -0.3316    0.0000 N   0  0  0  0  0  0  0  0  0  0  0  0
    4.5079    0.3829    0.0000 C   0  0  0  0  0  0  0  0  0  0  0  0
    4.0954    1.0974    0.0000 C   0  0  0  0  0  0  0  0  0  0  0  0
    4.5079    1.8118    0.0000 F   0  0  0  0  0  0  0  0  0  0  0  0
  1  2  1  0  0  0  0
  2  3  1  0  0  0  0
  3  4  1  0  0  0  0
  4  5  2  0  0  0  0
  5  6  1  0  0  0  0
  6  7  1  0  0  0  0
  8  7  1  1  0  0  0
  8  9  1  0  0  0  0
  9 10  1  0  0  0  0
 10 11  2  0  0  0  0
 11 12  1  0  0  0  0
 12 13  2  0  0  0  0
 13 14  1  0  0  0  0
 13 15  1  0  0  0  0
 15 16  2  0  0  0  0
 10 16  1  0  0  0  0
  8 17  1  0  0  0  0
 17 18  2  0  0  0  0
 17 19  1  0  0  0  0
 19 20  1  0  0  0  0
 20 21  1  0  0  0  0
 21 22  2  0  0  0  0
 22 23  1  0  0  0  0
 23 24  2  0  0  0  0
 24 25  1  0  0  0  0
 25 26  2  0  0  0  0
 21 26  1  0  0  0  0
  6 27  2  0  0  0  0
 27 28  1  0  0  0  0
 28 29  2  0  0  0  0
  4 29  1  0  0  0  0
 29 30  1  0  0  0  0
M  END
> <ID>
CPD_2710

$$$$
CPD_2715
  Mrv1822 09091914012D          

 38 41  0  0  1  0            999 V2000
   -3.9039   -5.3329    0.0000 C   0  0  0  0  0  0  0  0  0  0  0  0
   -3.4914   -6.0474    0.0000 C   0  0  0  0  0  0  0  0  0  0  0  0
   -3.9039   -6.7618    0.0000 C   0  0  0  0  0  0  0  0  0  0  0  0
   -3.4914   -7.4763    0.0000 C   0  0  0  0  0  0  0  0  0  0  0  0
   -2.6664   -7.4763    0.0000 C   0  0  0  0  0  0  0  0  0  0  0  0
   -2.2539   -6.7618    0.0000 C   0  0  0  0  0  0  0  0  0  0  0  0
   -1.4289   -6.7618    0.0000 O   0  0  0  0  0  0  0  0  0  0  0  0
   -2.6664   -6.0474    0.0000 N   0  0  0  0  0  0  0  0  0  0  0  0
   -2.2539   -5.3329    0.0000 C   0  0  0  0  0  0  0  0  0  0  0  0
   -1.4289   -5.3329    0.0000 C   0  0  0  0  0  0  0  0  0  0  0  0
   -1.0164   -6.0474    0.0000 C   0  0  0  0  0  0  0  0  0  0  0  0
   -0.9302   -6.8678    0.0000 Cl  0  0  0  0  0  0  0  0  0  0  0  0
   -0.1914   -6.0474    0.0000 C   0  0  0  0  0  0  0  0  0  0  0  0
    0.2211   -5.3329    0.0000 C   0  0  0  0  0  0  0  0  0  0  0  0
   -0.1914   -4.6184    0.0000 C   0  0  0  0  0  0  0  0  0  0  0  0
   -1.0164   -4.6184    0.0000 C   0  0  0  0  0  0  0  0  0  0  0  0
   -1.4289   -3.9039    0.0000 N   0  0  0  0  0  0  0  0  0  0  0  0
   -1.0164   -3.1895    0.0000 C   0  0  2  0  0  0  0  0  0  0  0  0
   -1.4289   -2.4750    0.0000 C   0  0  0  0  0  0  0  0  0  0  0  0
   -2.2539   -2.4750    0.0000 C   0  0  0  0  0  0  0  0  0  0  0  0
   -2.6664   -3.1895    0.0000 C   0  0  0  0  0  0  0  0  0  0  0  0
   -3.4914   -3.1895    0.0000 C   0  0  0  0  0  0  0  0  0  0  0  0
   -3.9039   -2.4750    0.0000 C   0  0  0  0  0  0  0  0  0  0  0  0
   -4.7289   -2.4750    0.0000 F   0  0  0  0  0  0  0  0  0  0  0  0
   -3.4914   -1.7605    0.0000 C   0  0  0  0  0  0  0  0  0  0  0  0
   -2.6664   -1.7605    0.0000 C   0  0  0  0  0  0  0  0  0  0  0  0
   -0.1914   -3.1895    0.0000 C   0  0  0  0  0  0  0  0  0  0  0  0
    0.2211   -3.9039    0.0000 O   0  0  0  0  0  0  0  0  0  0  0  0
    0.2211   -2.4750    0.0000 O   0  0  0  0  0  0  0  0  0  0  0  0
    1.0461   -2.4750    0.0000 C   0  0  0  0  0  0  0  0  0  0  0  0
    1.4586   -1.7605    0.0000 C   0  0  0  0  0  0  0  0  0  0  0  0
    1.0461   -1.0461    0.0000 C   0  0  0  0  0  0  0  0  0  0  0  0
    1.4586   -0.3316    0.0000 C   0  0  0  0  0  0  0  0  0  0  0  0
    2.2836   -0.3316    0.0000 C   0  0  0  0  0  0  0  0  0  0  0  0
    2.6961   -1.0461    0.0000 C   0  0  0  0  0  0  0  0  0  0  0  0
    2.2836   -1.7605    0.0000 C   0  0  0  0  0  0  0  0  0  0  0  0
   -4.7289   -6.7618    0.0000 C   0  0  0  0  0  0  0  0  0  0  0  0
   -5.5539   -6.7618    0.0000 N   0  0  0  0  0  0  0  0  0  0  0  0
  1  2  1  0  0  0  0
  2  3  2  0  0  0  0
  3  4  1  0  0  0  0
  4  5  1  0  0  0  0
  5  6  1  0  0  0  0
  6  7  2  0  0  0  0
  6  8  1  0  0  0  0
  2  8  1  0  0  0  0
  8  9  1  0  0  0  0
  9 10  1  0  0  0  0
 10 11  2  0  0  0  0
 11 12  1  0  0  0  0
 11 13  1  0  0  0  0
 13 14  2  0  0  0  0
 14 15  1  0  0  0  0
 15 16  2  0  0  0  0
 10 16  1  0  0  0  0
 16 17  1  0  0  0  0
 18 17  1  6  0  0  0
 18 19  1  0  0  0  0
 19 20  1  0  0  0  0
 20 21  2  0  0  0  0
 21 22  1  0  0  0  0
 22 23  2  0  0  0  0
 23 24  1  0  0  0  0
 23 25  1  0  0  0  0
 25 26  2  0  0  0  0
 20 26  1  0  0  0  0
 18 27  1  0  0  0  0
 27 28  2  0  0  0  0
 27 29  1  0  0  0  0
 29 30  1  0  0  0  0
 30 31  1  0  0  0  0
 31 32  2  0  0  0  0
 32 33  1  0  0  0  0
 33 34  2  0  0  0  0
 34 35  1  0  0  0  0
 35 36  2  0  0  0  0
 31 36  1  0  0  0  0
  3 37  1  0  0  0  0
 37 38  3  0  0  0  0
M  END
> <ID>
CPD_2715

$$$$
CPD_2720
  Mrv1822 09091914012D          

 28 31  0  0  0  0            999 V2000
    8.3536   -0.1271    0.0000 N   0  0  0  0  0  0  0  0  0  0  0  0
    8.3536    0.6979    0.0000 C   0  0  0  0  0  0  0  0  0  0  0  0
    9.0681    1.1104    0.0000 C   0  0  0  0  0  0  0  0  0  0  0  0
    9.0681    1.9354    0.0000 C   0  0  0  0  0  0  0  0  0  0  0  0
    8.3536    2.3479    0.0000 C   0  0  0  0  0  0  0  0  0  0  0  0
    7.6391    1.9354    0.0000 C   0  0  0  0  0  0  0  0  0  0  0  0
    7.6391    1.1104    0.0000 C   0  0  0  0  0  0  0  0  0  0  0  0
    6.9246    0.6979    0.0000 O   0  0  0  0  0  0  0  0  0  0  0  0
    6.2102    1.1104    0.0000 C   0  0  0  0  0  0  0  0  0  0  0  0
    5.4957    0.6979    0.0000 C   0  0  0  0  0  0  0  0  0  0  0  0
    4.7812    1.1104    0.0000 C   0  0  0  0  0  0  0  0  0  0  0  0
    4.7812    1.9354    0.0000 C   0  0  0  0  0  0  0  0  0  0  0  0
    4.0668    2.3479    0.0000 N   0  0  0  0  0  0  0  0  0  0  0  0
    3.3523    1.9354    0.0000 C   0  0  0  0  0  0  0  0  0  0  0  0
    3.3523    1.1104    0.0000 C   0  0  0  0  0  0  0  0  0  0  0  0
    2.6378    0.6979    0.0000 C   0  0  0  0  0  0  0  0  0  0  0  0
    1.9233    1.1104    0.0000 C   0  0  0  0  0  0  0  0  0  0  0  0
    1.1387    0.8555    0.0000 N   0  0  0  0  0  0  0  0  0  0  0  0
    0.6538    1.5229    0.0000 C   0  0  0  0  0  0  0  0  0  0  0  0
    1.1387    2.1904    0.0000 C   0  0  0  0  0  0  0  0  0  0  0  0
    1.9233    1.9354    0.0000 N   0  0  0  0  0  0  0  0  0  0  0  0
    2.6378    2.3479    0.0000 C   0  0  0  0  0  0  0  0  0  0  0  0
    0.8838    2.9750    0.0000 C   0  0  0  0  0  0  0  0  0  0  0  0
    0.0768    3.1465    0.0000 O   0  0  0  0  0  0  0  0  0  0  0  0
    1.4358    3.5881    0.0000 O   0  0  0  0  0  0  0  0  0  0  0  0
    5.4957    2.3479    0.0000 C   0  0  0  0  0  0  0  0  0  0  0  0
    6.2102    1.9354    0.0000 C   0  0  0  0  0  0  0  0  0  0  0  0
    6.9246    2.3479    0.0000 Cl  0  0  0  0  0  0  0  0  0  0  0  0
  1  2  1  0  0  0  0
  2  3  2  0  0  0  0
  3  4  1  0  0  0  0
  4  5  2  0  0  0  0
  5  6  1  0  0  0  0
  6  7  2  0  0  0  0
  2  7  1  0  0  0  0
  7  8  1  0  0  0  0
  8  9  1  0  0  0  0
  9 10  2  0  0  0  0
 10 11  1  0  0  0  0
 11 12  2  0  0  0  0
 12 13  1  0  0  0  0
 13 14  1  0  0  0  0
 14 15  2  0  0  0  0
 15 16  1  0  0  0  0
 16 17  1  0  0  0  0
 17 18  2  0  0  0  0
 18 19  1  0  0  0  0
 19 20  2  0  0  0  0
 20 21  1  0  0  0  0
 17 21  1  0  0  0  0
 21 22  1  0  0  0  0
 14 22  1  0  0  0  0
 20 23  1  0  0  0  0
 23 24  1  0  0  0  0
 23 25  2  0  0  0  0
 12 26  1  0  0  0  0
 26 27  2  0  0  0  0
  9 27  1  0  0  0  0
 27 28  1  0  0  0  0
M  END
> <ID>
CPD_2720

$$$$
CPD_2725
  Mrv1822 09091914012D          

 24 26  0  0  0  0            999 V2000
    0.0768   -2.3215    0.0000 O   0  0  0  0  0  0  0  0  0  0  0  0
    0.8838   -2.1500    0.0000 C   0  0  0  0  0  0  0  0  0  0  0  0
    1.4358   -2.7631    0.0000 O   0  0  0  0  0  0  0  0  0  0  0  0
    1.1387   -1.3654    0.0000 C   0  0  0  0  0  0  0  0  0  0  0  0
    0.6538   -0.6979    0.0000 C   0  0  0  0  0  0  0  0  0  0  0  0
    1.1387   -0.0305    0.0000 N   0  0  0  0  0  0  0  0  0  0  0  0
    1.9233   -0.2854    0.0000 C   0  0  0  0  0  0  0  0  0  0  0  0
    2.6378    0.1271    0.0000 C   0  0  0  0  0  0  0  0  0  0  0  0
    3.3523   -0.2854    0.0000 C   0  0  0  0  0  0  0  0  0  0  0  0
    3.3523   -1.1104    0.0000 C   0  0  0  0  0  0  0  0  0  0  0  0
    2.6378   -1.5229    0.0000 C   0  0  0  0  0  0  0  0  0  0  0  0
    1.9233   -1.1104    0.0000 N   0  0  0  0  0  0  0  0  0  0  0  0
    4.0668   -1.5229    0.0000 N   0  0  0  0  0  0  0  0  0  0  0  0
    4.0668   -2.3479    0.0000 C   0  0  0  0  0  0  0  0  0  0  0  0
    3.3523   -2.7604    0.0000 C   0  0  0  0  0  0  0  0  0  0  0  0
    3.3523   -3.5854    0.0000 C   0  0  0  0  0  0  0  0  0  0  0  0
    4.0668   -3.9979    0.0000 C   0  0  0  0  0  0  0  0  0  0  0  0
    4.0668   -4.8229    0.0000 O   0  0  0  0  0  0  0  0  0  0  0  0
    4.7812   -3.5854    0.0000 C   0  0  0  0  0  0  0  0  0  0  0  0
    4.7812   -2.7604    0.0000 C   0  0  0  0  0  0  0  0  0  0  0  0
    5.4957   -2.3479    0.0000 C   0  0  0  0  0  0  0  0  0  0  0  0
    6.2102   -1.9354    0.0000 F   0  0  0  0  0  0  0  0  0  0  0  0
    5.9082   -3.0624    0.0000 F   0  0  0  0  0  0  0  0  0  0  0  0
    5.0832   -1.6335    0.0000 F   0  0  0  0  0  0  0  0  0  0  0  0
  1  2  1  0  0  0  0
  2  3  2  0  0  0  0
  2  4  1  0  0  0  0
  4  5  2  0  0  0  0
  5  6  1  0  0  0  0
  6  7  2  0  0  0  0
  7  8  1  0  0  0  0
  8  9  1  0  0  0  0
  9 10  2  0  0  0  0
 10 11  1  0  0  0  0
 11 12  1  0  0  0  0
  4 12  1  0  0  0  0
  7 12  1  0  0  0  0
 10 13  1  0  0  0  0
 13 14  1  0  0  0  0
 14 15  2  0  0  0  0
 15 16  1  0  0  0  0
 16 17  2  0  0  0  0
 17 18  1  0  0  0  0
 17 19  1  0  0  0  0
 19 20  2  0  0  0  0
 14 20  1  0  0  0  0
 20 21  1  0  0  0  0
 21 22  1  0  0  0  0
 21 23  1  0  0  0  0
 21 24  1  0  0  0  0
M  END
> <ID>
CPD_2725

$$$$
CPD_2730
  Mrv1822 09091914012D          

 24 26  0  0  0  0            999 V2000
    8.3536    0.6979    0.0000 N   0  0  0  0  0  0  0  0  0  0  0  0
    7.6391    1.1104    0.0000 C   0  0  0  0  0  0  0  0  0  0  0  0
    7.6391    1.9354    0.0000 S   0  0  0  0  0  0  0  0  0  0  0  0
    6.9246    0.6979    0.0000 N   0  0  0  0  0  0  0  0  0  0  0  0
    6.2102    1.1104    0.0000 C   0  0  0  0  0  0  0  0  0  0  0  0
    5.4957    0.6979    0.0000 C   0  0  0  0  0  0  0  0  0  0  0  0
    4.7812    1.1104    0.0000 C   0  0  0  0  0  0  0  0  0  0  0  0
    4.0668    0.6979    0.0000 Cl  0  0  0  0  0  0  0  0  0  0  0  0
    4.7812    1.9354    0.0000 C   0  0  0  0  0  0  0  0  0  0  0  0
    4.0668    2.3479    0.0000 N   0  0  0  0  0  0  0  0  0  0  0  0
    3.3523    1.9354    0.0000 C   0  0  0  0  0  0  0  0  0  0  0  0
    3.3523    1.1104    0.0000 C   0  0  0  0  0  0  0  0  0  0  0  0
    2.6378    0.6979    0.0000 C   0  0  0  0  0  0  0  0  0  0  0  0
    1.9233    1.1104    0.0000 C   0  0  0  0  0  0  0  0  0  0  0  0
    1.1387    0.8555    0.0000 N   0  0  0  0  0  0  0  0  0  0  0  0
    0.6538    1.5229    0.0000 C   0  0  0  0  0  0  0  0  0  0  0  0
    1.1387    2.1904    0.0000 C   0  0  0  0  0  0  0  0  0  0  0  0
    1.9233    1.9354    0.0000 N   0  0  0  0  0  0  0  0  0  0  0  0
    2.6378    2.3479    0.0000 C   0  0  0  0  0  0  0  0  0  0  0  0
    0.8838    2.9750    0.0000 C   0  0  0  0  0  0  0  0  0  0  0  0
    0.0768    3.1465    0.0000 O   0  0  0  0  0  0  0  0  0  0  0  0
    1.4358    3.5881    0.0000 O   0  0  0  0  0  0  0  0  0  0  0  0
    5.4957    2.3479    0.0000 C   0  0  0  0  0  0  0  0  0  0  0  0
    6.2102    1.9354    0.0000 C   0  0  0  0  0  0  0  0  0  0  0  0
  1  2  1  0  0  0  0
  2  3  2  0  0  0  0
  2  4  1  0  0  0  0
  4  5  1  0  0  0  0
  5  6  2  0  0  0  0
  6  7  1  0  0  0  0
  7  8  1  0  0  0  0
  7  9  2  0  0  0  0
  9 10  1  0  0  0  0
 10 11  1  0  0  0  0
 11 12  2  0  0  0  0
 12 13  1  0  0  0  0
 13 14  1  0  0  0  0
 14 15  2  0  0  0  0
 15 16  1  0  0  0  0
 16 17  2  0  0  0  0
 17 18  1  0  0  0  0
 14 18  1  0  0  0  0
 18 19  1  0  0  0  0
 11 19  1  0  0  0  0
 17 20  1  0  0  0  0
 20 21  1  0  0  0  0
 20 22  2  0  0  0  0
  9 23  1  0  0  0  0
 23 24  2  0  0  0  0
  5 24  1  0  0  0  0
M  END
> <ID>
CPD_2730

$$$$
CPD_2735
  Mrv1822 09091914012D          

 33 35  0  0  0  0            999 V2000
   -5.7158   -0.0000    0.0000 C   0  0  0  0  0  0  0  0  0  0  0  0
   -5.0013   -0.4125    0.0000 C   0  0  0  0  0  0  0  0  0  0  0  0
   -4.2868   -0.0000    0.0000 O   0  0  0  0  0  0  0  0  0  0  0  0
   -5.0013   -1.2375    0.0000 N   0  0  0  0  0  0  0  0  0  0  0  0
   -4.2868   -1.6500    0.0000 C   0  0  0  0  0  0  0  0  0  0  0  0
   -4.2868   -2.4750    0.0000 C   0  0  0  0  0  0  0  0  0  0  0  0
   -3.5724   -2.8875    0.0000 O   0  0  0  0  0  0  0  0  0  0  0  0
   -3.5724   -3.7125    0.0000 C   0  0  0  0  0  0  0  0  0  0  0  0
   -2.8579   -4.1250    0.0000 C   0  0  0  0  0  0  0  0  0  0  0  0
   -2.1434   -3.7125    0.0000 O   0  0  0  0  0  0  0  0  0  0  0  0
   -1.4289   -4.1250    0.0000 C   0  0  0  0  0  0  0  0  0  0  0  0
   -0.7145   -3.7125    0.0000 C   0  0  0  0  0  0  0  0  0  0  0  0
    0.0000   -4.1250    0.0000 N   0  0  0  0  0  0  0  0  0  0  0  0
    0.7145   -3.7125    0.0000 C   0  0  0  0  0  0  0  0  0  0  0  0
    0.7145   -2.8875    0.0000 C   0  0  0  0  0  0  0  0  0  0  0  0
    1.4289   -4.1250    0.0000 O   0  0  0  0  0  0  0  0  0  0  0  0
   -2.8579   -4.9500    0.0000 C   0  0  0  0  0  0  0  0  0  0  0  0
   -3.5724   -5.3625    0.0000 C   0  0  0  0  0  0  0  0  0  0  0  0
   -3.5724   -6.1875    0.0000 N   0  0  0  0  0  0  0  0  0  0  0  0
   -2.8579   -6.6000    0.0000 C   0  0  0  0  0  0  0  0  0  0  0  0
   -2.1434   -6.1875    0.0000 C   0  0  0  0  0  0  0  0  0  0  0  0
   -1.4289   -6.6000    0.0000 N   0  0  0  0  0  0  0  0  0  0  0  0
   -1.4289   -7.4250    0.0000 C   0  0  0  0  0  0  0  0  0  0  0  0
   -2.1434   -7.8375    0.0000 N   0  0  0  0  0  0  0  0  0  0  0  0
   -2.8579   -7.4250    0.0000 C   0  0  0  0  0  0  0  0  0  0  0  0
   -0.7145   -7.8375    0.0000 N   0  0  0  0  0  0  0  0  0  0  0  0
    0.0000   -7.4250    0.0000 C   0  0  0  0  0  0  0  0  0  0  0  0
    0.7145   -7.8375    0.0000 C   0  0  0  0  0  0  0  0  0  0  0  0
    0.7145   -8.6625    0.0000 C   0  0  0  0  0  0  0  0  0  0  0  0
    0.0000   -9.0750    0.0000 C   0  0  0  0  0  0  0  0  0  0  0  0
   -0.7145   -8.6625    0.0000 C   0  0  0  0  0  0  0  0  0  0  0  0
   -4.2868   -4.9500    0.0000 C   0  0  0  0  0  0  0  0  0  0  0  0
   -4.2868   -4.1250    0.0000 C   0  0  0  0  0  0  0  0  0  0  0  0
  1  2  1  0  0  0  0
  2  3  2  0  0  0  0
  2  4  1  0  0  0  0
  4  5  1  0  0  0  0
  5  6  1  0  0  0  0
  6  7  1  0  0  0  0
  7  8  1  0  0  0  0
  8  9  2  0  0  0  0
  9 10  1  0  0  0  0
 10 11  1  0  0  0  0
 11 12  1  0  0  0  0
 12 13  1  0  0  0  0
 13 14  1  0  0  0  0
 14 15  1  0  0  0  0
 14 16  2  0  0  0  0
  9 17  1  0  0  0  0
 17 18  2  0  0  0  0
 18 19  1  0  0  0  0
 19 20  1  0  0  0  0
 20 21  2  0  0  0  0
 21 22  1  0  0  0  0
 22 23  2  0  0  0  0
 23 24  1  0  0  0  0
 24 25  2  0  0  0  0
 20 25  1  0  0  0  0
 23 26  1  0  0  0  0
 26 27  1  0  0  0  0
 27 28  1  0  0  0  0
 28 29  1  0  0  0  0
 29 30  1  0  0  0  0
 30 31  1  0  0  0  0
 26 31  1  0  0  0  0
 18 32  1  0  0  0  0
 32 33  2  0  0  0  0
  8 33  1  0  0  0  0
M  END
> <ID>
CPD_2735

$$$$
CPD_2740
  Mrv1822 09091914012D          

 38 40  0  0  0  0            999 V2000
   -7.1447    2.4750    0.0000 C   0  0  0  0  0  0  0  0  0  0  0  0
   -6.4302    2.0625    0.0000 C   0  0  0  0  0  0  0  0  0  0  0  0
   -6.4302    1.2375    0.0000 C   0  0  0  0  0  0  0  0  0  0  0  0
   -5.7158    0.8250    0.0000 C   0  0  0  0  0  0  0  0  0  0  0  0
   -5.0013    1.2375    0.0000 N   0  0  0  0  0  0  0  0  0  0  0  0
   -5.0013    2.0625    0.0000 C   0  0  0  0  0  0  0  0  0  0  0  0
   -5.7158    2.4750    0.0000 O   0  0  0  0  0  0  0  0  0  0  0  0
   -4.2868    2.4750    0.0000 C   0  0  0  0  0  0  0  0  0  0  0  0
   -4.2868    3.3000    0.0000 C   0  0  0  0  0  0  0  0  0  0  0  0
   -3.5724    3.7125    0.0000 C   0  0  0  0  0  0  0  0  0  0  0  0
   -2.8579    3.3000    0.0000 C   0  0  0  0  0  0  0  0  0  0  0  0
   -2.1434    3.7125    0.0000 N   0  0  0  0  0  0  0  0  0  0  0  0
   -1.4289    3.3000    0.0000 C   0  0  0  0  0  0  0  0  0  0  0  0
   -0.7145    3.7125    0.0000 C   0  0  0  0  0  0  0  0  0  0  0  0
    0.0000    3.3000    0.0000 C   0  0  0  0  0  0  0  0  0  0  0  0
    0.7145    3.7125    0.0000 O   0  0  0  0  0  0  0  0  0  0  0  0
    1.4289    3.3000    0.0000 C   0  0  0  0  0  0  0  0  0  0  0  0
    2.1434    3.7125    0.0000 C   0  0  0  0  0  0  0  0  0  0  0  0
    2.8579    3.3000    0.0000 N   0  0  0  0  0  0  0  0  0  0  0  0
    3.5724    3.7125    0.0000 C   0  0  0  0  0  0  0  0  0  0  0  0
    3.5724    4.5375    0.0000 C   0  0  0  0  0  0  0  0  0  0  0  0
    4.2868    3.3000    0.0000 O   0  0  0  0  0  0  0  0  0  0  0  0
    0.0000    2.4750    0.0000 C   0  0  0  0  0  0  0  0  0  0  0  0
    0.7145    2.0625    0.0000 O   0  0  0  0  0  0  0  0  0  0  0  0
    1.4289    2.4750    0.0000 C   0  0  0  0  0  0  0  0  0  0  0  0
    2.1434    2.0625    0.0000 C   0  0  0  0  0  0  0  0  0  0  0  0
    2.8579    2.4750    0.0000 N   0  0  0  0  0  0  0  0  0  0  0  0
    3.5724    2.0625    0.0000 C   0  0  0  0  0  0  0  0  0  0  0  0
    4.2868    2.4750    0.0000 C   0  0  0  0  0  0  0  0  0  0  0  0
    3.5724    1.2375    0.0000 O   0  0  0  0  0  0  0  0  0  0  0  0
   -0.7145    2.0625    0.0000 C   0  0  0  0  0  0  0  0  0  0  0  0
   -1.4289    2.4750    0.0000 C   0  0  0  0  0  0  0  0  0  0  0  0
   -2.8579    2.4750    0.0000 C   0  0  0  0  0  0  0  0  0  0  0  0
   -3.5724    2.0625    0.0000 C   0  0  0  0  0  0  0  0  0  0  0  0
   -5.7158   -0.0000    0.0000 C   0  0  0  0  0  0  0  0  0  0  0  0
   -6.4302   -0.4125    0.0000 C   0  0  0  0  0  0  0  0  0  0  0  0
   -7.1447   -0.0000    0.0000 C   0  0  0  0  0  0  0  0  0  0  0  0
   -7.1447    0.8250    0.0000 C   0  0  0  0  0  0  0  0  0  0  0  0
  1  2  1  0  0  0  0
  2  3  1  0  0  0  0
  3  4  2  0  0  0  0
  4  5  1  0  0  0  0
  5  6  1  0  0  0  0
  6  7  2  0  0  0  0
  6  8  1  0  0  0  0
  8  9  2  0  0  0  0
  9 10  1  0  0  0  0
 10 11  2  0  0  0  0
 11 12  1  0  0  0  0
 12 13  1  0  0  0  0
 13 14  2  0  0  0  0
 14 15  1  0  0  0  0
 15 16  1  0  0  0  0
 16 17  1  0  0  0  0
 17 18  1  0  0  0  0
 18 19  1  0  0  0  0
 19 20  1  0  0  0  0
 20 21  1  0  0  0  0
 20 22  2  0  0  0  0
 15 23  2  0  0  0  0
 23 24  1  0  0  0  0
 24 25  1  0  0  0  0
 25 26  1  0  0  0  0
 26 27  1  0  0  0  0
 27 28  1  0  0  0  0
 28 29  1  0  0  0  0
 28 30  2  0  0  0  0
 23 31  1  0  0  0  0
 31 32  2  0  0  0  0
 13 32  1  0  0  0  0
 11 33  1  0  0  0  0
 33 34  2  0  0  0  0
  8 34  1  0  0  0  0
  4 35  1  0  0  0  0
 35 36  2  0  0  0  0
 36 37  1  0  0  0  0
 37 38  2  0  0  0  0
  3 38  1  0  0  0  0
M  END
> <ID>
CPD_2740

$$$$
CPD_2745
  Mrv1822 09091914012D          

 28 30  0  0  0  0            999 V2000
    5.0013   -2.8875    0.0000 C   0  0  0  0  0  0  0  0  0  0  0  0
    5.7158   -3.3000    0.0000 O   0  0  0  0  0  0  0  0  0  0  0  0
    6.4302   -2.8875    0.0000 C   0  0  0  0  0  0  0  0  0  0  0  0
    6.4302   -2.0625    0.0000 O   0  0  0  0  0  0  0  0  0  0  0  0
    7.1447   -3.3000    0.0000 C   0  0  0  0  0  0  0  0  0  0  0  0
    7.8592   -2.8875    0.0000 C   0  0  0  0  0  0  0  0  0  0  0  0
    8.5737   -3.3000    0.0000 C   0  0  0  0  0  0  0  0  0  0  0  0
    8.5737   -4.1250    0.0000 O   0  0  0  0  0  0  0  0  0  0  0  0
    9.2881   -2.8875    0.0000 N   0  0  0  0  0  0  0  0  0  0  0  0
   10.0026   -3.3000    0.0000 C   0  0  0  0  0  0  0  0  0  0  0  0
   10.7171   -2.8875    0.0000 C   0  0  0  0  0  0  0  0  0  0  0  0
   11.4315   -3.3000    0.0000 C   0  0  0  0  0  0  0  0  0  0  0  0
   11.4315   -4.1250    0.0000 C   0  0  0  0  0  0  0  0  0  0  0  0
   10.7171   -4.5375    0.0000 C   0  0  0  0  0  0  0  0  0  0  0  0
   10.0026   -4.1250    0.0000 C   0  0  0  0  0  0  0  0  0  0  0  0
   12.1460   -4.5375    0.0000 N   0  0  0  0  0  0  0  0  0  0  0  0
   12.8605   -4.1250    0.0000 C   0  0  0  0  0  0  0  0  0  0  0  0
   13.2730   -3.4105    0.0000 C   0  0  0  0  0  0  0  0  0  0  0  0
   13.6855   -4.1250    0.0000 C   0  0  0  0  0  0  0  0  0  0  0  0
   12.1460   -5.3625    0.0000 C   0  0  0  0  0  0  0  0  0  0  0  0
   12.8605   -5.7750    0.0000 C   0  0  0  0  0  0  0  0  0  0  0  0
   13.5749   -5.3625    0.0000 C   0  0  0  0  0  0  0  0  0  0  0  0
   14.2894   -4.9500    0.0000 N   0  0  0  0  0  0  0  0  0  0  0  0
   12.8605   -6.6000    0.0000 C   0  0  0  0  0  0  0  0  0  0  0  0
   13.5749   -7.0125    0.0000 Br  0  0  0  0  0  0  0  0  0  0  0  0
   12.1460   -7.0125    0.0000 C   0  0  0  0  0  0  0  0  0  0  0  0
   11.4315   -6.6000    0.0000 C   0  0  0  0  0  0  0  0  0  0  0  0
   11.4315   -5.7750    0.0000 C   0  0  0  0  0  0  0  0  0  0  0  0
  1  2  1  0  0  0  0
  2  3  1  0  0  0  0
  3  4  2  0  0  0  0
  3  5  1  0  0  0  0
  5  6  1  0  0  0  0
  6  7  1  0  0  0  0
  7  8  2  0  0  0  0
  7  9  1  0  0  0  0
  9 10  1  0  0  0  0
 10 11  2  0  0  0  0
 11 12  1  0  0  0  0
 12 13  2  0  0  0  0
 13 14  1  0  0  0  0
 14 15  2  0  0  0  0
 10 15  1  0  0  0  0
 13 16  1  0  0  0  0
 16 17  1  0  0  0  0
 17 18  1  0  0  0  0
 18 19  1  0  0  0  0
 17 19  1  0  0  0  0
 16 20  1  0  0  0  0
 20 21  2  0  0  0  0
 21 22  1  0  0  0  0
 22 23  3  0  0  0  0
 21 24  1  0  0  0  0
 24 25  1  0  0  0  0
 24 26  2  0  0  0  0
 26 27  1  0  0  0  0
 27 28  2  0  0  0  0
 20 28  1  0  0  0  0
M  END
> <ID>
CPD_2745

$$$$
CPD_2750
  Mrv1822 09091914012D          

 29 31  0  0  0  0            999 V2000
    4.5888    3.9507    0.0000 C   0  0  0  0  0  0  0  0  0  0  0  0
    3.8743    3.5382    0.0000 C   0  0  0  0  0  0  0  0  0  0  0  0
    3.8743    2.7132    0.0000 O   0  0  0  0  0  0  0  0  0  0  0  0
    3.1599    2.3007    0.0000 C   0  0  0  0  0  0  0  0  0  0  0  0
    2.4454    2.7132    0.0000 O   0  0  0  0  0  0  0  0  0  0  0  0
    3.1599    1.4757    0.0000 C   0  0  0  0  0  0  0  0  0  0  0  0
    2.4454    1.0632    0.0000 S   0  0  0  0  0  0  0  0  0  0  0  0
    2.0329    1.7776    0.0000 O   0  0  0  0  0  0  0  0  0  0  0  0
    2.8579    0.3487    0.0000 O   0  0  0  0  0  0  0  0  0  0  0  0
    1.7309    0.6507    0.0000 C   0  0  0  0  0  0  0  0  0  0  0  0
    1.7309   -0.1743    0.0000 C   0  0  0  0  0  0  0  0  0  0  0  0
    2.4454   -0.5868    0.0000 F   0  0  0  0  0  0  0  0  0  0  0  0
    1.0164   -0.5868    0.0000 C   0  0  0  0  0  0  0  0  0  0  0  0
    0.3020   -0.1743    0.0000 C   0  0  0  0  0  0  0  0  0  0  0  0
    0.3020    0.6507    0.0000 C   0  0  0  0  0  0  0  0  0  0  0  0
    1.0164    1.0632    0.0000 C   0  0  0  0  0  0  0  0  0  0  0  0
   -0.4125   -0.5868    0.0000 N   0  0  0  0  0  0  0  0  0  0  0  0
   -0.4125   -1.4118    0.0000 C   0  0  0  0  0  0  0  0  0  0  0  0
    0.0000   -2.1263    0.0000 C   0  0  0  0  0  0  0  0  0  0  0  0
   -0.8250   -2.1263    0.0000 C   0  0  0  0  0  0  0  0  0  0  0  0
   -1.1270   -0.1743    0.0000 C   0  0  0  0  0  0  0  0  0  0  0  0
   -1.8414   -0.5868    0.0000 C   0  0  0  0  0  0  0  0  0  0  0  0
   -1.8414   -1.4118    0.0000 C   0  0  0  0  0  0  0  0  0  0  0  0
   -1.8414   -2.2368    0.0000 N   0  0  0  0  0  0  0  0  0  0  0  0
   -2.5559   -0.1743    0.0000 C   0  0  0  0  0  0  0  0  0  0  0  0
   -3.2704   -0.5868    0.0000 Br  0  0  0  0  0  0  0  0  0  0  0  0
   -2.5559    0.6507    0.0000 C   0  0  0  0  0  0  0  0  0  0  0  0
   -1.8414    1.0632    0.0000 C   0  0  0  0  0  0  0  0  0  0  0  0
   -1.1270    0.6507    0.0000 C   0  0  0  0  0  0  0  0  0  0  0  0
  1  2  1  0  0  0  0
  2  3  1  0  0  0  0
  3  4  1  0  0  0  0
  4  5  2  0  0  0  0
  4  6  1  0  0  0  0
  6  7  1  0  0  0  0
  7  8  2  0  0  0  0
  7  9  2  0  0  0  0
  7 10  1  0  0  0  0
 10 11  2  0  0  0  0
 11 12  1  0  0  0  0
 11 13  1  0  0  0  0
 13 14  2  0  0  0  0
 14 15  1  0  0  0  0
 15 16  2  0  0  0  0
 10 16  1  0  0  0  0
 14 17  1  0  0  0  0
 17 18  1  0  0  0  0
 18 19  1  0  0  0  0
 19 20  1  0  0  0  0
 18 20  1  0  0  0  0
 17 21  1  0  0  0  0
 21 22  2  0  0  0  0
 22 23  1  0  0  0  0
 23 24  3  0  0  0  0
 22 25  1  0  0  0  0
 25 26  1  0  0  0  0
 25 27  2  0  0  0  0
 27 28  1  0  0  0  0
 28 29  2  0  0  0  0
 21 29  1  0  0  0  0
M  END
> <ID>
CPD_2750

$$$$
CPD_2755
  Mrv1822 09091914012D          

 24 26  0  0  0  0            999 V2000
    2.4454    1.0632    0.0000 N   0  0  0  0  0  0  0  0  0  0  0  0
    1.7309    0.6507    0.0000 C   0  0  0  0  0  0  0  0  0  0  0  0
    1.7309   -0.1743    0.0000 C   0  0  0  0  0  0  0  0  0  0  0  0
    1.0164   -0.5868    0.0000 C   0  0  0  0  0  0  0  0  0  0  0  0
    1.0164   -1.4118    0.0000 F   0  0  0  0  0  0  0  0  0  0  0  0
    0.3020   -0.1743    0.0000 C   0  0  0  0  0  0  0  0  0  0  0  0
    0.3020    0.6507    0.0000 C   0  0  0  0  0  0  0  0  0  0  0  0
    1.0164    1.0632    0.0000 C   0  0  0  0  0  0  0  0  0  0  0  0
    1.0164    1.8882    0.0000 C   0  0  0  0  0  0  0  0  0  0  0  0
    1.7309    2.3007    0.0000 O   0  0  0  0  0  0  0  0  0  0  0  0
    0.3020    2.3007    0.0000 O   0  0  0  0  0  0  0  0  0  0  0  0
   -0.4125   -0.5868    0.0000 N   0  0  0  0  0  0  0  0  0  0  0  0
   -0.4125   -1.4118    0.0000 C   0  0  0  0  0  0  0  0  0  0  0  0
    0.0000   -2.1263    0.0000 C   0  0  0  0  0  0  0  0  0  0  0  0
   -0.8250   -2.1263    0.0000 C   0  0  0  0  0  0  0  0  0  0  0  0
   -1.1270   -0.1743    0.0000 C   0  0  0  0  0  0  0  0  0  0  0  0
   -1.8414   -0.5868    0.0000 C   0  0  0  0  0  0  0  0  0  0  0  0
   -1.8414   -1.4118    0.0000 C   0  0  0  0  0  0  0  0  0  0  0  0
   -1.8414   -2.2368    0.0000 N   0  0  0  0  0  0  0  0  0  0  0  0
   -2.5559   -0.1743    0.0000 C   0  0  0  0  0  0  0  0  0  0  0  0
   -3.2704   -0.5868    0.0000 Br  0  0  0  0  0  0  0  0  0  0  0  0
   -2.5559    0.6507    0.0000 C   0  0  0  0  0  0  0  0  0  0  0  0
   -1.8414    1.0632    0.0000 C   0  0  0  0  0  0  0  0  0  0  0  0
   -1.1270    0.6507    0.0000 C   0  0  0  0  0  0  0  0  0  0  0  0
  1  2  1  0  0  0  0
  2  3  2  0  0  0  0
  3  4  1  0  0  0  0
  4  5  1  0  0  0  0
  4  6  2  0  0  0  0
  6  7  1  0  0  0  0
  7  8  2  0  0  0  0
  2  8  1  0  0  0  0
  8  9  1  0  0  0  0
  9 10  1  0  0  0  0
  9 11  2  0  0  0  0
  6 12  1  0  0  0  0
 12 13  1  0  0  0  0
 13 14  1  0  0  0  0
 14 15  1  0  0  0  0
 13 15  1  0  0  0  0
 12 16  1  0  0  0  0
 16 17  2  0  0  0  0
 17 18  1  0  0  0  0
 18 19  3  0  0  0  0
 17 20  1  0  0  0  0
 20 21  1  0  0  0  0
 20 22  2  0  0  0  0
 22 23  1  0  0  0  0
 23 24  2  0  0  0  0
 16 24  1  0  0  0  0
M  END
> <ID>
CPD_2755

$$$$
CPD_2760
  Mrv1822 09091914012D          

 24 26  0  0  0  0            999 V2000
    0.4125    8.9645    0.0000 C   0  0  0  0  0  0  0  0  0  0  0  0
    0.4125    8.1395    0.0000 S   0  0  0  0  0  0  0  0  0  0  0  0
   -0.3020    7.7270    0.0000 C   0  0  0  0  0  0  0  0  0  0  0  0
   -0.3020    6.9020    0.0000 N   0  0  0  0  0  0  0  0  0  0  0  0
   -1.0164    6.4895    0.0000 C   0  0  0  0  0  0  0  0  0  0  0  0
   -1.0164    5.6645    0.0000 N   0  0  0  0  0  0  0  0  0  0  0  0
   -0.3020    5.2520    0.0000 C   0  0  0  0  0  0  0  0  0  0  0  0
    0.4125    5.6645    0.0000 C   0  0  0  0  0  0  0  0  0  0  0  0
    1.1270    5.2520    0.0000 N   0  0  0  0  0  0  0  0  0  0  0  0
    1.1270    4.4270    0.0000 C   0  0  0  0  0  0  0  0  0  0  0  0
    1.8414    4.0145    0.0000 N   0  0  0  0  0  0  0  0  0  0  0  0
    1.8414    3.1895    0.0000 C   0  0  0  0  0  0  0  0  0  0  0  0
    2.2539    2.4750    0.0000 C   0  0  0  0  0  0  0  0  0  0  0  0
    1.4289    2.4750    0.0000 C   0  0  0  0  0  0  0  0  0  0  0  0
    0.4125    4.0145    0.0000 C   0  0  0  0  0  0  0  0  0  0  0  0
    0.4125    3.1895    0.0000 Br  0  0  0  0  0  0  0  0  0  0  0  0
   -0.3020    4.4270    0.0000 C   0  0  0  0  0  0  0  0  0  0  0  0
   -1.7309    6.9020    0.0000 C   0  0  0  0  0  0  0  0  0  0  0  0
   -1.7309    7.7270    0.0000 C   0  0  0  0  0  0  0  0  0  0  0  0
   -2.4454    8.1395    0.0000 N   0  0  0  0  0  0  0  0  0  0  0  0
   -2.4454    8.9645    0.0000 C   0  0  0  0  0  0  0  0  0  0  0  0
   -3.1599    9.3770    0.0000 C   0  0  0  0  0  0  0  0  0  0  0  0
   -1.7309    9.3770    0.0000 C   0  0  0  0  0  0  0  0  0  0  0  0
   -1.0164    8.1395    0.0000 N   0  0  0  0  0  0  0  0  0  0  0  0
  1  2  1  0  0  0  0
  2  3  1  0  0  0  0
  3  4  2  0  0  0  0
  4  5  1  0  0  0  0
  5  6  1  0  0  0  0
  6  7  1  0  0  0  0
  7  8  2  0  0  0  0
  8  9  1  0  0  0  0
  9 10  2  0  0  0  0
 10 11  1  0  0  0  0
 11 12  1  0  0  0  0
 12 13  1  0  0  0  0
 13 14  1  0  0  0  0
 12 14  1  0  0  0  0
 10 15  1  0  0  0  0
 15 16  1  0  0  0  0
 15 17  2  0  0  0  0
  7 17  1  0  0  0  0
  5 18  2  0  0  0  0
 18 19  1  0  0  0  0
 19 20  1  0  0  0  0
 20 21  1  0  0  0  0
 21 22  1  0  0  0  0
 21 23  1  0  0  0  0
 19 24  2  0  0  0  0
  3 24  1  0  0  0  0
M  END
> <ID>
CPD_2760

$$$$
CPD_2765
  Mrv1822 09091914012D          

 25 27  0  0  0  0            999 V2000
    1.7309   -2.1730    0.0000 C   0  0  0  0  0  0  0  0  0  0  0  0
    2.1434   -2.8875    0.0000 C   0  0  0  0  0  0  0  0  0  0  0  0
    2.9684   -2.8875    0.0000 C   0  0  0  0  0  0  0  0  0  0  0  0
    3.3809   -3.6020    0.0000 C   0  0  0  0  0  0  0  0  0  0  0  0
    4.2059   -3.6020    0.0000 N   0  0  0  0  0  0  0  0  0  0  0  0
    4.6184   -4.3164    0.0000 C   0  0  0  0  0  0  0  0  0  0  0  0
    5.4434   -4.3164    0.0000 C   0  0  0  0  0  0  0  0  0  0  0  0
    5.8559   -5.0309    0.0000 C   0  0  0  0  0  0  0  0  0  0  0  0
    5.4434   -5.7454    0.0000 C   0  0  0  0  0  0  0  0  0  0  0  0
    5.9954   -6.3585    0.0000 N   0  0  0  0  0  0  0  0  0  0  0  0
    6.7491   -6.0229    0.0000 C   0  0  0  0  0  0  0  0  0  0  0  0
    6.6629   -5.2024    0.0000 N   0  0  0  0  0  0  0  0  0  0  0  0
    4.6184   -5.7454    0.0000 C   0  0  0  0  0  0  0  0  0  0  0  0
    4.2059   -5.0309    0.0000 C   0  0  0  0  0  0  0  0  0  0  0  0
    3.3809   -5.0309    0.0000 Cl  0  0  0  0  0  0  0  0  0  0  0  0
    4.6184   -2.8875    0.0000 S   0  0  0  0  0  0  0  0  0  0  0  0
    3.9039   -2.4750    0.0000 O   0  0  0  0  0  0  0  0  0  0  0  0
    5.3329   -3.3000    0.0000 O   0  0  0  0  0  0  0  0  0  0  0  0
    5.0309   -2.1730    0.0000 C   0  0  0  0  0  0  0  0  0  0  0  0
    4.6184   -1.4586    0.0000 C   0  0  0  0  0  0  0  0  0  0  0  0
    5.0309   -0.7441    0.0000 C   0  0  0  0  0  0  0  0  0  0  0  0
    5.8559   -0.7441    0.0000 C   0  0  0  0  0  0  0  0  0  0  0  0
    6.2684   -1.4586    0.0000 C   0  0  0  0  0  0  0  0  0  0  0  0
    5.8559   -2.1730    0.0000 C   0  0  0  0  0  0  0  0  0  0  0  0
    6.2684   -2.8875    0.0000 N   0  0  0  0  0  0  0  0  0  0  0  0
  1  2  1  0  0  0  0
  2  3  1  0  0  0  0
  3  4  1  0  0  0  0
  4  5  1  0  0  0  0
  5  6  1  0  0  0  0
  6  7  2  0  0  0  0
  7  8  1  0  0  0  0
  8  9  2  0  0  0  0
  9 10  1  0  0  0  0
 10 11  1  0  0  0  0
 11 12  2  0  0  0  0
  8 12  1  0  0  0  0
  9 13  1  0  0  0  0
 13 14  2  0  0  0  0
  6 14  1  0  0  0  0
 14 15  1  0  0  0  0
  5 16  1  0  0  0  0
 16 17  2  0  0  0  0
 16 18  2  0  0  0  0
 16 19  1  0  0  0  0
 19 20  2  0  0  0  0
 20 21  1  0  0  0  0
 21 22  2  0  0  0  0
 22 23  1  0  0  0  0
 23 24  2  0  0  0  0
 19 24  1  0  0  0  0
 24 25  1  0  0  0  0
M  END
> <ID>
CPD_2765

$$$$
CPD_2770
  Mrv1822 09091914012D          

 29 32  0  0  0  0            999 V2000
   -4.9418   -1.5812    0.0000 C   0  0  0  0  0  0  0  0  0  0  0  0
   -4.5293   -2.2956    0.0000 C   0  0  0  0  0  0  0  0  0  0  0  0
   -3.7043   -2.2956    0.0000 C   0  0  0  0  0  0  0  0  0  0  0  0
   -3.2918   -3.0101    0.0000 C   0  0  0  0  0  0  0  0  0  0  0  0
   -2.4668   -3.0101    0.0000 N   0  0  0  0  0  0  0  0  0  0  0  0
   -2.0543   -3.7246    0.0000 C   0  0  0  0  0  0  0  0  0  0  0  0
   -2.4668   -4.4391    0.0000 C   0  0  0  0  0  0  0  0  0  0  0  0
   -2.0543   -5.1535    0.0000 C   0  0  0  0  0  0  0  0  0  0  0  0
   -1.2293   -5.1535    0.0000 C   0  0  0  0  0  0  0  0  0  0  0  0
   -0.6773   -5.7666    0.0000 N   0  0  0  0  0  0  0  0  0  0  0  0
    0.0764   -5.4311    0.0000 C   0  0  0  0  0  0  0  0  0  0  0  0
   -0.0098   -4.6106    0.0000 C   0  0  0  0  0  0  0  0  0  0  0  0
    0.6576   -4.1257    0.0000 N   0  0  0  0  0  0  0  0  0  0  0  0
    1.4113   -4.4612    0.0000 C   0  0  0  0  0  0  0  0  0  0  0  0
    1.4975   -5.2817    0.0000 N   0  0  0  0  0  0  0  0  0  0  0  0
    0.8301   -5.7666    0.0000 C   0  0  0  0  0  0  0  0  0  0  0  0
    0.9163   -6.5871    0.0000 S   0  0  0  0  0  0  0  0  0  0  0  0
   -0.8168   -4.4391    0.0000 C   0  0  0  0  0  0  0  0  0  0  0  0
   -1.2293   -3.7246    0.0000 C   0  0  0  0  0  0  0  0  0  0  0  0
   -2.0543   -2.2956    0.0000 S   0  0  0  0  0  0  0  0  0  0  0  0
   -2.7688   -1.8831    0.0000 O   0  0  0  0  0  0  0  0  0  0  0  0
   -1.3398   -2.7081    0.0000 O   0  0  0  0  0  0  0  0  0  0  0  0
   -1.6418   -1.5812    0.0000 C   0  0  0  0  0  0  0  0  0  0  0  0
   -2.0543   -0.8667    0.0000 C   0  0  0  0  0  0  0  0  0  0  0  0
   -1.6418   -0.1522    0.0000 C   0  0  0  0  0  0  0  0  0  0  0  0
   -0.8168   -0.1522    0.0000 C   0  0  0  0  0  0  0  0  0  0  0  0
   -0.4043   -0.8667    0.0000 C   0  0  0  0  0  0  0  0  0  0  0  0
   -0.8168   -1.5812    0.0000 C   0  0  0  0  0  0  0  0  0  0  0  0
   -0.4043   -2.2956    0.0000 N   0  0  0  0  0  0  0  0  0  0  0  0
  1  2  1  0  0  0  0
  2  3  1  0  0  0  0
  3  4  1  0  0  0  0
  4  5  1  0  0  0  0
  5  6  1  0  0  0  0
  6  7  2  0  0  0  0
  7  8  1  0  0  0  0
  8  9  2  0  0  0  0
  9 10  1  0  0  0  0
 10 11  1  0  0  0  0
 11 12  2  0  0  0  0
 12 13  1  0  0  0  0
 13 14  2  0  0  0  0
 14 15  1  0  0  0  0
 15 16  1  0  0  0  0
 11 16  1  0  0  0  0
 16 17  2  0  0  0  0
 12 18  1  0  0  0  0
  9 18  1  0  0  0  0
 18 19  2  0  0  0  0
  6 19  1  0  0  0  0
  5 20  1  0  0  0  0
 20 21  2  0  0  0  0
 20 22  2  0  0  0  0
 20 23  1  0  0  0  0
 23 24  2  0  0  0  0
 24 25  1  0  0  0  0
 25 26  2  0  0  0  0
 26 27  1  0  0  0  0
 27 28  2  0  0  0  0
 23 28  1  0  0  0  0
 28 29  1  0  0  0  0
M  END
> <ID>
CPD_2770

$$$$
CPD_2775
  Mrv1822 09091914012D          

 28 29  0  0  0  0            999 V2000
   -1.8414   -1.7605    0.0000 C   0  0  0  0  0  0  0  0  0  0  0  0
   -1.4289   -2.4750    0.0000 C   0  0  0  0  0  0  0  0  0  0  0  0
   -0.6039   -2.4750    0.0000 C   0  0  0  0  0  0  0  0  0  0  0  0
   -0.1914   -3.1895    0.0000 C   0  0  0  0  0  0  0  0  0  0  0  0
    0.6336   -3.1895    0.0000 N   0  0  0  0  0  0  0  0  0  0  0  0
    1.0461   -3.9039    0.0000 C   0  0  0  0  0  0  0  0  0  0  0  0
    1.8711   -3.9039    0.0000 C   0  0  0  0  0  0  0  0  0  0  0  0
    2.2836   -4.6184    0.0000 C   0  0  0  0  0  0  0  0  0  0  0  0
    3.1086   -4.6184    0.0000 F   0  0  0  0  0  0  0  0  0  0  0  0
    1.8711   -5.3329    0.0000 C   0  0  0  0  0  0  0  0  0  0  0  0
    1.0461   -5.3329    0.0000 C   0  0  0  0  0  0  0  0  0  0  0  0
    0.6336   -4.6184    0.0000 C   0  0  0  0  0  0  0  0  0  0  0  0
   -0.1914   -4.6184    0.0000 F   0  0  0  0  0  0  0  0  0  0  0  0
    2.2836   -6.0474    0.0000 C   0  0  0  0  0  0  0  0  0  0  0  0
    3.1086   -6.0474    0.0000 N   0  0  0  0  0  0  0  0  0  0  0  0
    1.8711   -6.7618    0.0000 C   0  0  0  0  0  0  0  0  0  0  0  0
    2.2836   -7.4763    0.0000 O   0  0  0  0  0  0  0  0  0  0  0  0
    1.0461   -6.7618    0.0000 O   0  0  0  0  0  0  0  0  0  0  0  0
    1.0461   -2.4750    0.0000 S   0  0  0  0  0  0  0  0  0  0  0  0
    1.7605   -2.8875    0.0000 O   0  0  0  0  0  0  0  0  0  0  0  0
    0.3316   -2.0625    0.0000 O   0  0  0  0  0  0  0  0  0  0  0  0
    1.4586   -1.7605    0.0000 C   0  0  0  0  0  0  0  0  0  0  0  0
    1.0461   -1.0461    0.0000 C   0  0  0  0  0  0  0  0  0  0  0  0
    1.4586   -0.3316    0.0000 C   0  0  0  0  0  0  0  0  0  0  0  0
    2.2836   -0.3316    0.0000 C   0  0  0  0  0  0  0  0  0  0  0  0
    2.6961   -1.0461    0.0000 C   0  0  0  0  0  0  0  0  0  0  0  0
    2.2836   -1.7605    0.0000 C   0  0  0  0  0  0  0  0  0  0  0  0
    2.6961   -2.4750    0.0000 N   0  0  0  0  0  0  0  0  0  0  0  0
  1  2  1  0  0  0  0
  2  3  1  0  0  0  0
  3  4  1  0  0  0  0
  4  5  1  0  0  0  0
  5  6  1  0  0  0  0
  6  7  2  0  0  0  0
  7  8  1  0  0  0  0
  8  9  1  0  0  0  0
  8 10  2  0  0  0  0
 10 11  1  0  0  0  0
 11 12  2  0  0  0  0
  6 12  1  0  0  0  0
 12 13  1  0  0  0  0
 10 14  1  0  0  0  0
 14 15  1  0  0  0  0
 14 16  1  0  0  0  0
 16 17  1  0  0  0  0
 16 18  2  0  0  0  0
  5 19  1  0  0  0  0
 19 20  2  0  0  0  0
 19 21  2  0  0  0  0
 19 22  1  0  0  0  0
 22 23  2  0  0  0  0
 23 24  1  0  0  0  0
 24 25  2  0  0  0  0
 25 26  1  0  0  0  0
 26 27  2  0  0  0  0
 22 27  1  0  0  0  0
 27 28  1  0  0  0  0
M  END
> <ID>
CPD_2775

$$$$
CPD_2780
  Mrv1822 09091914012D          

 22 23  0  0  0  0            999 V2000
    0.7145   -0.4125    0.0000 C   0  0  0  0  0  0  0  0  0  0  0  0
    1.4289    0.0000    0.0000 C   0  0  0  0  0  0  0  0  0  0  0  0
    1.4289    0.8250    0.0000 C   0  0  0  0  0  0  0  0  0  0  0  0
    2.1434   -0.4125    0.0000 N   0  0  0  0  0  0  0  0  0  0  0  0
    2.1434   -1.2375    0.0000 C   0  0  0  0  0  0  0  0  0  0  0  0
    2.8579   -1.6500    0.0000 C   0  0  0  0  0  0  0  0  0  0  0  0
    2.8579   -2.4750    0.0000 C   0  0  0  0  0  0  0  0  0  0  0  0
    2.1434   -2.8875    0.0000 C   0  0  0  0  0  0  0  0  0  0  0  0
    2.1434   -3.7125    0.0000 C   0  0  0  0  0  0  0  0  0  0  0  0
    1.4289   -4.1250    0.0000 O   0  0  0  0  0  0  0  0  0  0  0  0
    1.4289   -2.4750    0.0000 C   0  0  0  0  0  0  0  0  0  0  0  0
    0.7145   -2.8875    0.0000 C   0  0  0  0  0  0  0  0  0  0  0  0
    1.4289   -1.6500    0.0000 C   0  0  0  0  0  0  0  0  0  0  0  0
    2.8579    0.0000    0.0000 C   0  0  0  0  0  0  0  0  0  0  0  0
    2.8579    0.8250    0.0000 C   0  0  0  0  0  0  0  0  0  0  0  0
    2.1434    1.2375    0.0000 C   0  0  0  0  0  0  0  0  0  0  0  0
    1.4289    1.6500    0.0000 N   0  0  0  0  0  0  0  0  0  0  0  0
    3.5724    1.2375    0.0000 C   0  0  0  0  0  0  0  0  0  0  0  0
    3.5724    2.0625    0.0000 Br  0  0  0  0  0  0  0  0  0  0  0  0
    4.2868    0.8250    0.0000 C   0  0  0  0  0  0  0  0  0  0  0  0
    4.2868    0.0000    0.0000 C   0  0  0  0  0  0  0  0  0  0  0  0
    3.5724   -0.4125    0.0000 C   0  0  0  0  0  0  0  0  0  0  0  0
  1  2  1  0  0  0  0
  2  3  1  0  0  0  0
  2  4  1  0  0  0  0
  4  5  1  0  0  0  0
  5  6  2  0  0  0  0
  6  7  1  0  0  0  0
  7  8  2  0  0  0  0
  8  9  1  0  0  0  0
  9 10  1  0  0  0  0
  8 11  1  0  0  0  0
 11 12  1  0  0  0  0
 11 13  2  0  0  0  0
  5 13  1  0  0  0  0
  4 14  1  0  0  0  0
 14 15  2  0  0  0  0
 15 16  1  0  0  0  0
 16 17  3  0  0  0  0
 15 18  1  0  0  0  0
 18 19  1  0  0  0  0
 18 20  2  0  0  0  0
 20 21  1  0  0  0  0
 21 22  2  0  0  0  0
 14 22  1  0  0  0  0
M  END
> <ID>
CPD_2780

$$$$
CPD_2785
  Mrv1822 09091914012D          

 26 27  0  0  0  0            999 V2000
    3.5724   -2.8875    0.0000 C   0  0  0  0  0  0  0  0  0  0  0  0
    4.2868   -3.3000    0.0000 C   0  0  0  0  0  0  0  0  0  0  0  0
    5.0013   -2.8875    0.0000 C   0  0  0  0  0  0  0  0  0  0  0  0
    5.7158   -3.3000    0.0000 N   0  0  0  0  0  0  0  0  0  0  0  0
    6.4302   -2.8875    0.0000 C   0  0  0  0  0  0  0  0  0  0  0  0
    6.4302   -2.0625    0.0000 O   0  0  0  0  0  0  0  0  0  0  0  0
    7.1447   -3.3000    0.0000 C   0  0  0  0  0  0  0  0  0  0  0  0
    7.8592   -2.8875    0.0000 C   0  0  0  0  0  0  0  0  0  0  0  0
    8.5737   -3.3000    0.0000 C   0  0  0  0  0  0  0  0  0  0  0  0
    8.5737   -4.1250    0.0000 C   0  0  0  0  0  0  0  0  0  0  0  0
    9.2881   -4.5375    0.0000 N   0  0  0  0  0  0  0  0  0  0  0  0
   10.0026   -4.1250    0.0000 C   0  0  0  0  0  0  0  0  0  0  0  0
   10.7171   -4.5375    0.0000 C   0  0  0  0  0  0  0  0  0  0  0  0
   10.0026   -3.3000    0.0000 C   0  0  0  0  0  0  0  0  0  0  0  0
    9.2881   -5.3625    0.0000 C   0  0  0  0  0  0  0  0  0  0  0  0
   10.0026   -5.7750    0.0000 C   0  0  0  0  0  0  0  0  0  0  0  0
   10.7171   -5.3625    0.0000 C   0  0  0  0  0  0  0  0  0  0  0  0
   11.4315   -4.9500    0.0000 N   0  0  0  0  0  0  0  0  0  0  0  0
   10.0026   -6.6000    0.0000 C   0  0  0  0  0  0  0  0  0  0  0  0
   10.7171   -7.0125    0.0000 Br  0  0  0  0  0  0  0  0  0  0  0  0
    9.2881   -7.0125    0.0000 C   0  0  0  0  0  0  0  0  0  0  0  0
    8.5737   -6.6000    0.0000 C   0  0  0  0  0  0  0  0  0  0  0  0
    8.5737   -5.7750    0.0000 C   0  0  0  0  0  0  0  0  0  0  0  0
    7.8592   -4.5375    0.0000 C   0  0  0  0  0  0  0  0  0  0  0  0
    7.8592   -5.3625    0.0000 N   0  0  0  0  0  0  0  0  0  0  0  0
    7.1447   -4.1250    0.0000 C   0  0  0  0  0  0  0  0  0  0  0  0
  1  2  1  0  0  0  0
  2  3  1  0  0  0  0
  3  4  1  0  0  0  0
  4  5  1  0  0  0  0
  5  6  2  0  0  0  0
  5  7  1  0  0  0  0
  7  8  2  0  0  0  0
  8  9  1  0  0  0  0
  9 10  2  0  0  0  0
 10 11  1  0  0  0  0
 11 12  1  0  0  0  0
 12 13  1  0  0  0  0
 12 14  1  0  0  0  0
 11 15  1  0  0  0  0
 15 16  2  0  0  0  0
 16 17  1  0  0  0  0
 17 18  3  0  0  0  0
 16 19  1  0  0  0  0
 19 20  1  0  0  0  0
 19 21  2  0  0  0  0
 21 22  1  0  0  0  0
 22 23  2  0  0  0  0
 15 23  1  0  0  0  0
 10 24  1  0  0  0  0
 24 25  1  0  0  0  0
 24 26  2  0  0  0  0
  7 26  1  0  0  0  0
M  END
> <ID>
CPD_2785

$$$$
CPD_2790
  Mrv1822 09091914012D          

 31 32  0  0  0  0            999 V2000
    0.7145   -7.8375    0.0000 C   0  0  0  0  0  0  0  0  0  0  0  0
    1.4289   -7.4250    0.0000 O   0  0  0  0  0  0  0  0  0  0  0  0
    2.1434   -7.8375    0.0000 C   0  0  0  0  0  0  0  0  0  0  0  0
    2.8579   -7.4250    0.0000 C   0  0  0  0  0  0  0  0  0  0  0  0
    3.5724   -7.8375    0.0000 C   0  0  0  0  0  0  0  0  0  0  0  0
    4.2868   -7.4250    0.0000 C   0  0  0  0  0  0  0  0  0  0  0  0
    5.0013   -7.8375    0.0000 O   0  0  0  0  0  0  0  0  0  0  0  0
    4.2868   -6.6000    0.0000 O   0  0  0  0  0  0  0  0  0  0  0  0
    3.5724   -8.6625    0.0000 C   0  0  0  0  0  0  0  0  0  0  0  0
    4.2868   -9.0750    0.0000 N   0  0  0  0  0  0  0  0  0  0  0  0
    5.0013   -8.6625    0.0000 C   0  0  0  0  0  0  0  0  0  0  0  0
    5.7158   -9.0750    0.0000 C   0  0  0  0  0  0  0  0  0  0  0  0
    6.4302   -8.6625    0.0000 O   0  0  0  0  0  0  0  0  0  0  0  0
    7.1447   -9.0750    0.0000 C   0  0  0  0  0  0  0  0  0  0  0  0
    7.8592   -8.6625    0.0000 C   0  0  0  0  0  0  0  0  0  0  0  0
    8.5737   -9.0750    0.0000 O   0  0  0  0  0  0  0  0  0  0  0  0
    9.2881   -8.6625    0.0000 C   0  0  0  0  0  0  0  0  0  0  0  0
   10.0026   -9.0750    0.0000 C   0  0  0  0  0  0  0  0  0  0  0  0
   10.7171   -8.6625    0.0000 O   0  0  0  0  0  0  0  0  0  0  0  0
   11.4315   -9.0750    0.0000 C   0  0  0  0  0  0  0  0  0  0  0  0
   12.1460   -8.6625    0.0000 C   0  0  0  0  0  0  0  0  0  0  0  0
   12.8605   -9.0750    0.0000 O   0  0  0  0  0  0  0  0  0  0  0  0
   13.5749   -8.6625    0.0000 C   0  0  0  0  0  0  0  0  0  0  0  0
   14.2894   -9.0750    0.0000 C   0  0  0  0  0  0  0  0  0  0  0  0
   15.0039   -8.6625    0.0000 C   0  0  0  0  0  0  0  0  0  0  0  0
   15.7184   -9.0750    0.0000 C   0  0  0  0  0  0  0  0  0  0  0  0
   15.7184   -9.9000    0.0000 C   0  0  0  0  0  0  0  0  0  0  0  0
   15.0039  -10.3125    0.0000 C   0  0  0  0  0  0  0  0  0  0  0  0
   14.2894   -9.9000    0.0000 C   0  0  0  0  0  0  0  0  0  0  0  0
    2.8579   -9.0750    0.0000 C   0  0  0  0  0  0  0  0  0  0  0  0
    2.1434   -8.6625    0.0000 C   0  0  0  0  0  0  0  0  0  0  0  0
  1  2  1  0  0  0  0
  2  3  1  0  0  0  0
  3  4  2  0  0  0  0
  4  5  1  0  0  0  0
  5  6  1  0  0  0  0
  6  7  1  0  0  0  0
  6  8  2  0  0  0  0
  5  9  2  0  0  0  0
  9 10  1  0  0  0  0
 10 11  1  0  0  0  0
 11 12  1  0  0  0  0
 12 13  1  0  0  0  0
 13 14  1  0  0  0  0
 14 15  1  0  0  0  0
 15 16  1  0  0  0  0
 16 17  1  0  0  0  0
 17 18  1  0  0  0  0
 18 19  1  0  0  0  0
 19 20  1  0  0  0  0
 20 21  1  0  0  0  0
 21 22  1  0  0  0  0
 22 23  1  0  0  0  0
 23 24  1  0  0  0  0
 24 25  2  0  0  0  0
 25 26  1  0  0  0  0
 26 27  2  0  0  0  0
 27 28  1  0  0  0  0
 28 29  2  0  0  0  0
 24 29  1  0  0  0  0
  9 30  1  0  0  0  0
 30 31  2  0  0  0  0
  3 31  1  0  0  0  0
M  END
> <ID>
CPD_2790

$$$$
CPD_2795
  Mrv1822 09091914012D          

 32 33  0  0  0  0            999 V2000
   -7.9697  -10.7250    0.0000 C   0  0  0  0  0  0  0  0  0  0  0  0
   -7.1447  -10.7250    0.0000 C   0  0  0  0  0  0  0  0  0  0  0  0
   -6.3197  -10.7250    0.0000 C   0  0  0  0  0  0  0  0  0  0  0  0
   -7.1447   -9.9000    0.0000 N   0  0  0  0  0  0  0  0  0  0  0  0
   -6.4302   -9.4875    0.0000 C   0  0  0  0  0  0  0  0  0  0  0  0
   -6.4302   -8.6625    0.0000 C   0  0  0  0  0  0  0  0  0  0  0  0
   -5.7158   -8.2500    0.0000 C   0  0  0  0  0  0  0  0  0  0  0  0
   -5.0013   -8.6625    0.0000 C   0  0  0  0  0  0  0  0  0  0  0  0
   -4.2868   -8.2500    0.0000 N   0  0  0  0  0  0  0  0  0  0  0  0
   -3.5724   -8.6625    0.0000 C   0  0  0  0  0  0  0  0  0  0  0  0
   -2.8579   -8.2500    0.0000 C   0  0  0  0  0  0  0  0  0  0  0  0
   -2.1434   -8.6625    0.0000 O   0  0  0  0  0  0  0  0  0  0  0  0
   -1.4289   -8.2500    0.0000 C   0  0  0  0  0  0  0  0  0  0  0  0
   -0.7145   -8.6625    0.0000 C   0  0  0  0  0  0  0  0  0  0  0  0
    0.0000   -8.2500    0.0000 O   0  0  0  0  0  0  0  0  0  0  0  0
    0.7145   -8.6625    0.0000 C   0  0  0  0  0  0  0  0  0  0  0  0
    1.4289   -8.2500    0.0000 C   0  0  0  0  0  0  0  0  0  0  0  0
    2.1434   -8.6625    0.0000 O   0  0  0  0  0  0  0  0  0  0  0  0
    2.8579   -8.2500    0.0000 C   0  0  0  0  0  0  0  0  0  0  0  0
    3.5724   -8.6625    0.0000 C   0  0  0  0  0  0  0  0  0  0  0  0
    4.2868   -8.2500    0.0000 O   0  0  0  0  0  0  0  0  0  0  0  0
    5.0013   -8.6625    0.0000 C   0  0  0  0  0  0  0  0  0  0  0  0
    5.7158   -8.2500    0.0000 C   0  0  0  0  0  0  0  0  0  0  0  0
    5.7158   -7.4250    0.0000 C   0  0  0  0  0  0  0  0  0  0  0  0
    6.4302   -7.0125    0.0000 C   0  0  0  0  0  0  0  0  0  0  0  0
    7.1447   -7.4250    0.0000 C   0  0  0  0  0  0  0  0  0  0  0  0
    7.1447   -8.2500    0.0000 C   0  0  0  0  0  0  0  0  0  0  0  0
    6.4302   -8.6625    0.0000 C   0  0  0  0  0  0  0  0  0  0  0  0
   -5.0013   -9.4875    0.0000 C   0  0  0  0  0  0  0  0  0  0  0  0
   -5.7158   -9.9000    0.0000 C   0  0  0  0  0  0  0  0  0  0  0  0
   -7.1447  -11.5500    0.0000 C   0  0  0  0  0  0  0  0  0  0  0  0
   -7.1447  -12.3750    0.0000 N   0  0  0  0  0  0  0  0  0  0  0  0
  1  2  1  0  0  0  0
  2  3  1  0  0  0  0
  2  4  1  0  0  0  0
  4  5  1  0  0  0  0
  5  6  2  0  0  0  0
  6  7  1  0  0  0  0
  7  8  2  0  0  0  0
  8  9  1  0  0  0  0
  9 10  1  0  0  0  0
 10 11  1  0  0  0  0
 11 12  1  0  0  0  0
 12 13  1  0  0  0  0
 13 14  1  0  0  0  0
 14 15  1  0  0  0  0
 15 16  1  0  0  0  0
 16 17  1  0  0  0  0
 17 18  1  0  0  0  0
 18 19  1  0  0  0  0
 19 20  1  0  0  0  0
 20 21  1  0  0  0  0
 21 22  1  0  0  0  0
 22 23  1  0  0  0  0
 23 24  2  0  0  0  0
 24 25  1  0  0  0  0
 25 26  2  0  0  0  0
 26 27  1  0  0  0  0
 27 28  2  0  0  0  0
 23 28  1  0  0  0  0
  8 29  1  0  0  0  0
 29 30  2  0  0  0  0
  5 30  1  0  0  0  0
  2 31  1  0  0  0  0
 31 32  3  0  0  0  0
M  END
> <ID>
CPD_2795

$$$$
CPD_2800
  Mrv1822 09091914012D          

 36 39  0  0  0  0            999 V2000
    2.8579   -4.1250    0.0000 N   0  0  0  0  0  0  0  0  0  0  0  0
    2.8579   -4.9500    0.0000 C   0  0  0  0  0  0  0  0  0  0  0  0
    3.5724   -5.3625    0.0000 N   0  0  0  0  0  0  0  0  0  0  0  0
    2.1434   -5.3625    0.0000 C   0  0  0  0  0  0  0  0  0  0  0  0
    2.1434   -6.1875    0.0000 C   0  0  0  0  0  0  0  0  0  0  0  0
    2.8579   -6.6000    0.0000 N   0  0  0  0  0  0  0  0  0  0  0  0
    2.8579   -7.4250    0.0000 C   0  0  0  0  0  0  0  0  0  0  0  0
    2.1434   -7.8375    0.0000 C   0  0  0  0  0  0  0  0  0  0  0  0
    1.4289   -7.4250    0.0000 C   0  0  0  0  0  0  0  0  0  0  0  0
    1.4289   -6.6000    0.0000 C   0  0  0  0  0  0  0  0  0  0  0  0
    0.7145   -6.1875    0.0000 N   0  0  0  0  0  0  0  0  0  0  0  0
    0.7145   -5.3625    0.0000 C   0  0  0  0  0  0  0  0  0  0  0  0
    0.0000   -4.9500    0.0000 C   0  0  0  0  0  0  0  0  0  0  0  0
    0.0000   -4.1250    0.0000 C   0  0  0  0  0  0  0  0  0  0  0  0
   -0.7145   -3.7125    0.0000 Cl  0  0  0  0  0  0  0  0  0  0  0  0
    0.7145   -3.7125    0.0000 C   0  0  0  0  0  0  0  0  0  0  0  0
    1.4289   -4.1250    0.0000 C   0  0  0  0  0  0  0  0  0  0  0  0
    1.4289   -4.9500    0.0000 C   0  0  0  0  0  0  0  0  0  0  0  0
    0.7145   -2.8875    0.0000 N   0  0  0  0  0  0  0  0  0  0  0  0
    0.0000   -2.4750    0.0000 C   0  0  0  0  0  0  0  0  0  0  0  0
    0.0000   -1.6500    0.0000 C   0  0  0  0  0  0  0  0  0  0  0  0
    0.7145   -1.2375    0.0000 N   0  0  0  0  0  0  0  0  0  0  0  0
    1.4289   -1.6500    0.0000 C   0  0  0  0  0  0  0  0  0  0  0  0
    1.4289   -2.4750    0.0000 C   0  0  0  0  0  0  0  0  0  0  0  0
    0.7145   -0.4125    0.0000 C   0  0  0  0  0  0  0  0  0  0  0  0
    0.0000    0.0000    0.0000 C   0  0  0  0  0  0  0  0  0  0  0  0
    0.0000    0.8250    0.0000 C   0  0  0  0  0  0  0  0  0  0  0  0
    0.7145    1.2375    0.0000 C   0  0  0  0  0  0  0  0  0  0  0  0
    0.7145    2.0625    0.0000 N   0  0  0  0  0  0  0  0  0  0  0  0
    1.4289    0.8250    0.0000 C   0  0  0  0  0  0  0  0  0  0  0  0
    1.4289    0.0000    0.0000 C   0  0  0  0  0  0  0  0  0  0  0  0
    2.1434   -0.4125    0.0000 Cl  0  0  0  0  0  0  0  0  0  0  0  0
    2.1434   -8.6625    0.0000 C   0  0  0  0  0  0  0  0  0  0  0  0
    2.1434   -9.4875    0.0000 F   0  0  0  0  0  0  0  0  0  0  0  0
    1.3184   -8.6625    0.0000 F   0  0  0  0  0  0  0  0  0  0  0  0
    2.9684   -8.6625    0.0000 F   0  0  0  0  0  0  0  0  0  0  0  0
  1  2  1  0  0  0  0
  2  3  2  0  0  0  0
  2  4  1  0  0  0  0
  4  5  1  0  0  0  0
  5  6  2  0  0  0  0
  6  7  1  0  0  0  0
  7  8  2  0  0  0  0
  8  9  1  0  0  0  0
  9 10  2  0  0  0  0
  5 10  1  0  0  0  0
 10 11  1  0  0  0  0
 11 12  1  0  0  0  0
 12 13  2  0  0  0  0
 13 14  1  0  0  0  0
 14 15  1  0  0  0  0
 14 16  2  0  0  0  0
 16 17  1  0  0  0  0
 17 18  2  0  0  0  0
 12 18  1  0  0  0  0
 16 19  1  0  0  0  0
 19 20  1  0  0  0  0
 20 21  1  0  0  0  0
 21 22  1  0  0  0  0
 22 23  1  0  0  0  0
 23 24  1  0  0  0  0
 19 24  1  0  0  0  0
 22 25  1  0  0  0  0
 25 26  2  0  0  0  0
 26 27  1  0  0  0  0
 27 28  2  0  0  0  0
 28 29  1  0  0  0  0
 28 30  1  0  0  0  0
 30 31  2  0  0  0  0
 25 31  1  0  0  0  0
 31 32  1  0  0  0  0
  8 33  1  0  0  0  0
 33 34  1  0  0  0  0
 33 35  1  0  0  0  0
 33 36  1  0  0  0  0
M  END
> <ID>
CPD_2800

$$$$
CPD_2805
  Mrv1822 09091914012D          

 32 34  0  0  0  0            999 V2000
    1.4289    0.8250    0.0000 C   0  0  0  0  0  0  0  0  0  0  0  0
    1.4289   -0.0000    0.0000 O   0  0  0  0  0  0  0  0  0  0  0  0
    0.7145   -0.4125    0.0000 C   0  0  0  0  0  0  0  0  0  0  0  0
    0.0000    0.0000    0.0000 O   0  0  0  0  0  0  0  0  0  0  0  0
    0.7145   -1.2375    0.0000 C   0  0  0  0  0  0  0  0  0  0  0  0
    0.0470   -1.7224    0.0000 C   0  0  0  0  0  0  0  0  0  0  0  0
   -0.7376   -1.4675    0.0000 N   0  0  0  0  0  0  0  0  0  0  0  0
   -0.9091   -0.6605    0.0000 C   0  0  0  0  0  0  0  0  0  0  0  0
   -0.2960   -0.1085    0.0000 N   0  0  0  0  0  0  0  0  0  0  0  0
   -0.4675    0.6985    0.0000 C   0  0  0  0  0  0  0  0  0  0  0  0
   -1.2522    0.9534    0.0000 C   0  0  0  0  0  0  0  0  0  0  0  0
   -1.8653    0.4014    0.0000 C   0  0  0  0  0  0  0  0  0  0  0  0
   -1.6937   -0.4056    0.0000 C   0  0  0  0  0  0  0  0  0  0  0  0
   -2.3068   -0.9576    0.0000 S   0  0  0  0  0  0  0  0  0  0  0  0
   -2.9199   -1.5096    0.0000 N   0  0  0  0  0  0  0  0  0  0  0  0
   -2.8589   -0.3445    0.0000 O   0  0  0  0  0  0  0  0  0  0  0  0
   -1.7548   -1.5707    0.0000 O   0  0  0  0  0  0  0  0  0  0  0  0
    0.1455    1.2505    0.0000 C   0  0  0  0  0  0  0  0  0  0  0  0
    0.7586    1.8026    0.0000 F   0  0  0  0  0  0  0  0  0  0  0  0
   -0.4065    1.8636    0.0000 F   0  0  0  0  0  0  0  0  0  0  0  0
    0.6976    0.6374    0.0000 F   0  0  0  0  0  0  0  0  0  0  0  0
    0.3020   -2.5070    0.0000 C   0  0  0  0  0  0  0  0  0  0  0  0
    1.1270   -2.5070    0.0000 N   0  0  0  0  0  0  0  0  0  0  0  0
    1.3819   -1.7224    0.0000 S   0  0  0  0  0  0  0  0  0  0  0  0
   -0.1830   -3.1745    0.0000 C   0  0  0  0  0  0  0  0  0  0  0  0
    0.1526   -3.9282    0.0000 C   0  0  0  0  0  0  0  0  0  0  0  0
   -0.3323   -4.5956    0.0000 C   0  0  0  0  0  0  0  0  0  0  0  0
    0.0032   -5.3493    0.0000 O   0  0  0  0  0  0  0  0  0  0  0  0
   -0.4817   -6.0167    0.0000 C   0  0  0  0  0  0  0  0  0  0  0  0
   -1.1528   -4.5094    0.0000 C   0  0  0  0  0  0  0  0  0  0  0  0
   -1.4884   -3.7557    0.0000 C   0  0  0  0  0  0  0  0  0  0  0  0
   -1.0034   -3.0882    0.0000 C   0  0  0  0  0  0  0  0  0  0  0  0
  1  2  1  0  0  0  0
  2  3  1  0  0  0  0
  3  4  2  0  0  0  0
  3  5  1  0  0  0  0
  5  6  2  0  0  0  0
  6  7  1  0  0  0  0
  7  8  1  0  0  0  0
  8  9  2  0  0  0  0
  9 10  1  0  0  0  0
 10 11  2  0  0  0  0
 11 12  1  0  0  0  0
 12 13  2  0  0  0  0
  8 13  1  0  0  0  0
 13 14  1  0  0  0  0
 14 15  1  0  0  0  0
 14 16  2  0  0  0  0
 14 17  2  0  0  0  0
 10 18  1  0  0  0  0
 18 19  1  0  0  0  0
 18 20  1  0  0  0  0
 18 21  1  0  0  0  0
  6 22  1  0  0  0  0
 22 23  2  0  0  0  0
 23 24  1  0  0  0  0
  5 24  1  0  0  0  0
 22 25  1  0  0  0  0
 25 26  2  0  0  0  0
 26 27  1  0  0  0  0
 27 28  1  0  0  0  0
 28 29  1  0  0  0  0
 27 30  2  0  0  0  0
 30 31  1  0  0  0  0
 31 32  2  0  0  0  0
 25 32  1  0  0  0  0
M  END
> <ID>
CPD_2805

$$$$
CPD_2810
  Mrv1822 09091914012D          

 31 34  0  0  0  0            999 V2000
   -0.0000    3.3000    0.0000 C   0  0  0  0  0  0  0  0  0  0  0  0
   -0.0000    2.4750    0.0000 C   0  0  0  0  0  0  0  0  0  0  0  0
    0.7145    2.0625    0.0000 C   0  0  0  0  0  0  0  0  0  0  0  0
    1.4289    2.4750    0.0000 C   0  0  0  0  0  0  0  0  0  0  0  0
    2.1434    2.8875    0.0000 N   0  0  0  0  0  0  0  0  0  0  0  0
    0.7145    1.2375    0.0000 C   0  0  0  0  0  0  0  0  0  0  0  0
    0.0000    0.8250    0.0000 N   0  0  0  0  0  0  0  0  0  0  0  0
   -0.7145    1.2375    0.0000 C   0  0  0  0  0  0  0  0  0  0  0  0
   -1.4289    0.8250    0.0000 N   0  0  0  0  0  0  0  0  0  0  0  0
   -0.7145    2.0625    0.0000 N   0  0  0  0  0  0  0  0  0  0  0  0
    1.4289    0.8250    0.0000 N   0  0  0  0  0  0  0  0  0  0  0  0
    1.4289    0.0000    0.0000 C   0  0  0  0  0  0  0  0  0  0  0  0
    2.1434   -0.4125    0.0000 C   0  0  0  0  0  0  0  0  0  0  0  0
    2.8579    0.0000    0.0000 N   0  0  0  0  0  0  0  0  0  0  0  0
    3.5724   -0.4125    0.0000 C   0  0  0  0  0  0  0  0  0  0  0  0
    3.5724   -1.2375    0.0000 C   0  0  0  0  0  0  0  0  0  0  0  0
    2.8579   -1.6500    0.0000 C   0  0  0  0  0  0  0  0  0  0  0  0
    2.1434   -1.2375    0.0000 C   0  0  0  0  0  0  0  0  0  0  0  0
    1.4289   -1.6500    0.0000 C   0  0  0  0  0  0  0  0  0  0  0  0
    0.7145   -1.2375    0.0000 C   0  0  0  0  0  0  0  0  0  0  0  0
    0.7145   -0.4125    0.0000 C   0  0  0  0  0  0  0  0  0  0  0  0
    2.1434    1.2375    0.0000 S   0  0  0  0  0  0  0  0  0  0  0  0
    2.5559    0.5230    0.0000 O   0  0  0  0  0  0  0  0  0  0  0  0
    1.7309    1.9520    0.0000 O   0  0  0  0  0  0  0  0  0  0  0  0
    2.8579    1.6500    0.0000 C   0  0  0  0  0  0  0  0  0  0  0  0
    2.8579    2.4750    0.0000 C   0  0  0  0  0  0  0  0  0  0  0  0
    3.5724    2.8875    0.0000 C   0  0  0  0  0  0  0  0  0  0  0  0
    4.2868    2.4750    0.0000 C   0  0  0  0  0  0  0  0  0  0  0  0
    4.2868    1.6500    0.0000 C   0  0  0  0  0  0  0  0  0  0  0  0
    3.5724    1.2375    0.0000 C   0  0  0  0  0  0  0  0  0  0  0  0
    3.5724    0.4125    0.0000 O   0  0  0  0  0  0  0  0  0  0  0  0
  1  2  1  0  0  0  0
  2  3  2  0  0  0  0
  3  4  1  0  0  0  0
  4  5  3  0  0  0  0
  3  6  1  0  0  0  0
  6  7  2  0  0  0  0
  7  8  1  0  0  0  0
  8  9  1  0  0  0  0
  8 10  2  0  0  0  0
  2 10  1  0  0  0  0
  6 11  1  0  0  0  0
 11 12  1  0  0  0  0
 12 13  2  0  0  0  0
 13 14  1  0  0  0  0
 14 15  2  0  0  0  0
 15 16  1  0  0  0  0
 16 17  2  0  0  0  0
 17 18  1  0  0  0  0
 13 18  1  0  0  0  0
 18 19  2  0  0  0  0
 19 20  1  0  0  0  0
 20 21  2  0  0  0  0
 12 21  1  0  0  0  0
 11 22  1  0  0  0  0
 22 23  2  0  0  0  0
 22 24  2  0  0  0  0
 22 25  1  0  0  0  0
 25 26  2  0  0  0  0
 26 27  1  0  0  0  0
 27 28  2  0  0  0  0
 28 29  1  0  0  0  0
 29 30  2  0  0  0  0
 25 30  1  0  0  0  0
 30 31  1  0  0  0  0
M  END
> <ID>
CPD_2810

$$$$
CPD_2815
  Mrv1822 09091914012D          

 33 36  0  0  0  0            999 V2000
    4.2868    2.4750    0.0000 O   0  0  0  0  0  0  0  0  0  0  0  0
    3.5724    2.0625    0.0000 C   0  0  0  0  0  0  0  0  0  0  0  0
    2.8579    2.4750    0.0000 C   0  0  0  0  0  0  0  0  0  0  0  0
    2.1434    2.0625    0.0000 C   0  0  0  0  0  0  0  0  0  0  0  0
    2.1434    1.2375    0.0000 C   0  0  0  0  0  0  0  0  0  0  0  0
    2.8579    0.8250    0.0000 C   0  0  0  0  0  0  0  0  0  0  0  0
    3.5724    1.2375    0.0000 C   0  0  0  0  0  0  0  0  0  0  0  0
    4.2868    0.8250    0.0000 Br  0  0  0  0  0  0  0  0  0  0  0  0
    1.4289    0.8250    0.0000 N   0  0  0  0  0  0  0  0  0  0  0  0
    1.4289    0.0000    0.0000 C   0  0  0  0  0  0  0  0  0  0  0  0
    2.1434   -0.4125    0.0000 C   0  0  0  0  0  0  0  0  0  0  0  0
    2.8579    0.0000    0.0000 N   0  0  0  0  0  0  0  0  0  0  0  0
    3.5724   -0.4125    0.0000 C   0  0  0  0  0  0  0  0  0  0  0  0
    3.5724   -1.2375    0.0000 C   0  0  0  0  0  0  0  0  0  0  0  0
    2.8579   -1.6500    0.0000 C   0  0  0  0  0  0  0  0  0  0  0  0
    2.1434   -1.2375    0.0000 C   0  0  0  0  0  0  0  0  0  0  0  0
    1.4289   -1.6500    0.0000 C   0  0  0  0  0  0  0  0  0  0  0  0
    0.7145   -1.2375    0.0000 C   0  0  0  0  0  0  0  0  0  0  0  0
    0.7145   -0.4125    0.0000 C   0  0  0  0  0  0  0  0  0  0  0  0
    0.7145    1.2375    0.0000 S   0  0  0  0  0  0  0  0  0  0  0  0
    1.1270    1.9520    0.0000 O   0  0  0  0  0  0  0  0  0  0  0  0
    0.3020    0.5230    0.0000 O   0  0  0  0  0  0  0  0  0  0  0  0
    0.0000    1.6500    0.0000 C   0  0  0  0  0  0  0  0  0  0  0  0
    0.0000    2.4750    0.0000 C   0  0  0  0  0  0  0  0  0  0  0  0
   -0.7145    2.8875    0.0000 C   0  0  0  0  0  0  0  0  0  0  0  0
   -1.4289    2.4750    0.0000 C   0  0  0  0  0  0  0  0  0  0  0  0
   -1.4289    1.6500    0.0000 C   0  0  0  0  0  0  0  0  0  0  0  0
   -0.7145    1.2375    0.0000 C   0  0  0  0  0  0  0  0  0  0  0  0
   -0.7145    0.4125    0.0000 O   0  0  0  0  0  0  0  0  0  0  0  0
    1.4289    2.4750    0.0000 C   0  0  0  0  0  0  0  0  0  0  0  0
    0.7145    2.8875    0.0000 F   0  0  0  0  0  0  0  0  0  0  0  0
    1.8414    3.1895    0.0000 F   0  0  0  0  0  0  0  0  0  0  0  0
    0.8158    1.9230    0.0000 F   0  0  0  0  0  0  0  0  0  0  0  0
  1  2  1  0  0  0  0
  2  3  2  0  0  0  0
  3  4  1  0  0  0  0
  4  5  2  0  0  0  0
  5  6  1  0  0  0  0
  6  7  2  0  0  0  0
  2  7  1  0  0  0  0
  7  8  1  0  0  0  0
  5  9  1  0  0  0  0
  9 10  1  0  0  0  0
 10 11  2  0  0  0  0
 11 12  1  0  0  0  0
 12 13  2  0  0  0  0
 13 14  1  0  0  0  0
 14 15  2  0  0  0  0
 15 16  1  0  0  0  0
 11 16  1  0  0  0  0
 16 17  2  0  0  0  0
 17 18  1  0  0  0  0
 18 19  2  0  0  0  0
 10 19  1  0  0  0  0
  9 20  1  0  0  0  0
 20 21  2  0  0  0  0
 20 22  2  0  0  0  0
 20 23  1  0  0  0  0
 23 24  2  0  0  0  0
 24 25  1  0  0  0  0
 25 26  2  0  0  0  0
 26 27  1  0  0  0  0
 27 28  2  0  0  0  0
 23 28  1  0  0  0  0
 28 29  1  0  0  0  0
  4 30  1  0  0  0  0
 30 31  1  0  0  0  0
 30 32  1  0  0  0  0
 30 33  1  0  0  0  0
M  END
> <ID>
CPD_2815

$$$$
CPD_2820
  Mrv1822 09091914012D          

 30 33  0  0  0  0            999 V2000
    0.8838   -2.1500    0.0000 C   0  0  0  0  0  0  0  0  0  0  0  0
    1.1387   -1.3654    0.0000 C   0  0  0  0  0  0  0  0  0  0  0  0
    0.6538   -0.6979    0.0000 N   0  0  0  0  0  0  0  0  0  0  0  0
    1.1387   -0.0305    0.0000 N   0  0  0  0  0  0  0  0  0  0  0  0
    1.9233   -0.2854    0.0000 C   0  0  0  0  0  0  0  0  0  0  0  0
    2.6378    0.1271    0.0000 C   0  0  0  0  0  0  0  0  0  0  0  0
    3.3523   -0.2854    0.0000 C   0  0  0  0  0  0  0  0  0  0  0  0
    3.3523   -1.1104    0.0000 C   0  0  0  0  0  0  0  0  0  0  0  0
    2.6378   -1.5229    0.0000 C   0  0  0  0  0  0  0  0  0  0  0  0
    1.9233   -1.1104    0.0000 N   0  0  0  0  0  0  0  0  0  0  0  0
    4.0668   -1.5229    0.0000 S   0  0  0  0  0  0  0  0  0  0  0  0
    3.6543   -2.2374    0.0000 O   0  0  0  0  0  0  0  0  0  0  0  0
    4.4793   -0.8085    0.0000 O   0  0  0  0  0  0  0  0  0  0  0  0
    4.7812   -1.9354    0.0000 N   0  0  0  0  0  0  0  0  0  0  0  0
    4.7812   -2.7604    0.0000 C   0  0  0  0  0  0  0  0  0  0  0  0
    5.4957   -3.1729    0.0000 C   0  0  0  0  0  0  0  0  0  0  0  0
    5.4957   -3.9979    0.0000 C   0  0  0  0  0  0  0  0  0  0  0  0
    4.7812   -4.4104    0.0000 C   0  0  0  0  0  0  0  0  0  0  0  0
    4.0668   -3.9979    0.0000 C   0  0  0  0  0  0  0  0  0  0  0  0
    4.0668   -3.1729    0.0000 C   0  0  0  0  0  0  0  0  0  0  0  0
    4.7812   -5.2354    0.0000 N   0  0  0  0  0  0  0  0  0  0  0  0
    5.4957   -5.6479    0.0000 C   0  0  0  0  0  0  0  0  0  0  0  0
    5.4957   -6.4729    0.0000 C   0  0  0  0  0  0  0  0  0  0  0  0
    4.7812   -6.8854    0.0000 C   0  0  0  0  0  0  0  0  0  0  0  0
    5.3115   -7.5174    0.0000 F   0  0  0  0  0  0  0  0  0  0  0  0
    4.2509   -7.5174    0.0000 F   0  0  0  0  0  0  0  0  0  0  0  0
    4.0668   -6.4729    0.0000 C   0  0  0  0  0  0  0  0  0  0  0  0
    3.3523   -6.8854    0.0000 C   0  0  0  0  0  0  0  0  0  0  0  0
    2.6378   -6.4729    0.0000 O   0  0  0  0  0  0  0  0  0  0  0  0
    4.0668   -5.6479    0.0000 C   0  0  0  0  0  0  0  0  0  0  0  0
  1  2  1  0  0  0  0
  2  3  2  0  0  0  0
  3  4  1  0  0  0  0
  4  5  2  0  0  0  0
  5  6  1  0  0  0  0
  6  7  2  0  0  0  0
  7  8  1  0  0  0  0
  8  9  2  0  0  0  0
  9 10  1  0  0  0  0
  2 10  1  0  0  0  0
  5 10  1  0  0  0  0
  8 11  1  0  0  0  0
 11 12  2  0  0  0  0
 11 13  2  0  0  0  0
 11 14  1  0  0  0  0
 14 15  1  0  0  0  0
 15 16  2  0  0  0  0
 16 17  1  0  0  0  0
 17 18  2  0  0  0  0
 18 19  1  0  0  0  0
 19 20  2  0  0  0  0
 15 20  1  0  0  0  0
 18 21  1  0  0  0  0
 21 22  1  0  0  0  0
 22 23  1  0  0  0  0
 23 24  1  0  0  0  0
 24 25  1  0  0  0  0
 24 26  1  0  0  0  0
 24 27  1  0  0  0  0
 27 28  1  0  0  0  0
 28 29  1  0  0  0  0
 27 30  1  0  0  0  0
 21 30  1  0  0  0  0
M  END
> <ID>
CPD_2820

$$$$
CPD_2825
  Mrv1822 09091914012D          

 22 24  0  0  0  0            999 V2000
   -1.2400   -4.0623    0.0000 O   0  0  0  0  0  0  0  0  0  0  0  0
   -0.9851   -3.2777    0.0000 C   0  0  0  0  0  0  0  0  0  0  0  0
   -0.1781   -3.1062    0.0000 C   0  0  0  0  0  0  0  0  0  0  0  0
    0.0768   -2.3215    0.0000 C   0  0  0  0  0  0  0  0  0  0  0  0
    0.8838   -2.1500    0.0000 N   0  0  0  0  0  0  0  0  0  0  0  0
    1.4358   -2.7631    0.0000 C   0  0  0  0  0  0  0  0  0  0  0  0
    1.1809   -3.5477    0.0000 C   0  0  0  0  0  0  0  0  0  0  0  0
    0.3739   -3.7192    0.0000 C   0  0  0  0  0  0  0  0  0  0  0  0
    0.5172   -4.5317    0.0000 F   0  0  0  0  0  0  0  0  0  0  0  0
   -0.2196   -4.2923    0.0000 F   0  0  0  0  0  0  0  0  0  0  0  0
    1.1387   -1.3654    0.0000 C   0  0  0  0  0  0  0  0  0  0  0  0
    0.6538   -0.6979    0.0000 C   0  0  0  0  0  0  0  0  0  0  0  0
    1.1387   -0.0305    0.0000 N   0  0  0  0  0  0  0  0  0  0  0  0
    1.9233   -0.2854    0.0000 C   0  0  0  0  0  0  0  0  0  0  0  0
    2.6378    0.1271    0.0000 N   0  0  0  0  0  0  0  0  0  0  0  0
    3.3523   -0.2854    0.0000 C   0  0  0  0  0  0  0  0  0  0  0  0
    3.3523   -1.1104    0.0000 C   0  0  0  0  0  0  0  0  0  0  0  0
    4.0668   -1.5229    0.0000 F   0  0  0  0  0  0  0  0  0  0  0  0
    2.6378   -1.5229    0.0000 C   0  0  0  0  0  0  0  0  0  0  0  0
    2.6378   -2.3479    0.0000 C   0  0  0  0  0  0  0  0  0  0  0  0
    2.6378   -3.1729    0.0000 N   0  0  0  0  0  0  0  0  0  0  0  0
    1.9233   -1.1104    0.0000 C   0  0  0  0  0  0  0  0  0  0  0  0
  1  2  1  0  0  0  0
  2  3  1  0  0  0  0
  3  4  1  0  0  0  0
  4  5  1  0  0  0  0
  5  6  1  0  0  0  0
  6  7  1  0  0  0  0
  7  8  1  0  0  0  0
  3  8  1  0  0  0  0
  8  9  1  0  0  0  0
  8 10  1  0  0  0  0
  5 11  1  0  0  0  0
 11 12  2  0  0  0  0
 12 13  1  0  0  0  0
 13 14  1  0  0  0  0
 14 15  2  0  0  0  0
 15 16  1  0  0  0  0
 16 17  2  0  0  0  0
 17 18  1  0  0  0  0
 17 19  1  0  0  0  0
 19 20  1  0  0  0  0
 20 21  3  0  0  0  0
 19 22  2  0  0  0  0
 11 22  1  0  0  0  0
 14 22  1  0  0  0  0
M  END
> <ID>
CPD_2825

$$$$
CPD_2830
  Mrv1822 09091914012D          

 20 21  0  0  0  0            999 V2000
    0.7145    0.4125    0.0000 C   0  0  0  0  0  0  0  0  0  0  0  0
    0.7145   -0.4125    0.0000 C   0  0  0  0  0  0  0  0  0  0  0  0
   -0.1105   -0.4125    0.0000 F   0  0  0  0  0  0  0  0  0  0  0  0
    1.5395   -0.4125    0.0000 F   0  0  0  0  0  0  0  0  0  0  0  0
    0.7145   -1.2375    0.0000 C   0  0  0  0  0  0  0  0  0  0  0  0
    1.4289   -1.6500    0.0000 C   0  0  0  0  0  0  0  0  0  0  0  0
    1.4289   -2.4750    0.0000 C   0  0  0  0  0  0  0  0  0  0  0  0
    0.7145   -2.8875    0.0000 C   0  0  0  0  0  0  0  0  0  0  0  0
    0.0000   -2.4750    0.0000 C   0  0  0  0  0  0  0  0  0  0  0  0
    0.0000   -1.6500    0.0000 C   0  0  0  0  0  0  0  0  0  0  0  0
    2.1434   -1.2375    0.0000 N   0  0  0  0  0  0  0  0  0  0  0  0
    2.1434   -0.4125    0.0000 C   0  0  0  0  0  0  0  0  0  0  0  0
    2.8579   -0.0000    0.0000 C   0  0  0  0  0  0  0  0  0  0  0  0
    3.5724   -0.4125    0.0000 C   0  0  0  0  0  0  0  0  0  0  0  0
    3.8545    0.3627    0.0000 F   0  0  0  0  0  0  0  0  0  0  0  0
    4.3848   -0.5558    0.0000 F   0  0  0  0  0  0  0  0  0  0  0  0
    3.5724   -1.2375    0.0000 C   0  0  0  0  0  0  0  0  0  0  0  0
    4.2868   -1.6500    0.0000 C   0  0  0  0  0  0  0  0  0  0  0  0
    4.2868   -2.4750    0.0000 O   0  0  0  0  0  0  0  0  0  0  0  0
    2.8579   -1.6500    0.0000 C   0  0  0  0  0  0  0  0  0  0  0  0
  1  2  1  0  0  0  0
  2  3  1  0  0  0  0
  2  4  1  0  0  0  0
  2  5  1  0  0  0  0
  5  6  2  0  0  0  0
  6  7  1  0  0  0  0
  7  8  2  0  0  0  0
  8  9  1  0  0  0  0
  9 10  2  0  0  0  0
  5 10  1  0  0  0  0
  6 11  1  0  0  0  0
 11 12  1  0  0  0  0
 12 13  1  0  0  0  0
 13 14  1  0  0  0  0
 14 15  1  0  0  0  0
 14 16  1  0  0  0  0
 14 17  1  0  0  0  0
 17 18  1  0  0  0  0
 18 19  1  0  0  0  0
 17 20  1  0  0  0  0
 11 20  1  0  0  0  0
M  END
> <ID>
CPD_2830

$$$$
CPD_2835
  Mrv1822 09091914012D          

 32 35  0  0  0  0            999 V2000
   -4.2868   -0.0000    0.0000 C   0  0  0  0  0  0  0  0  0  0  0  0
   -3.5724   -0.4125    0.0000 C   0  0  0  0  0  0  0  0  0  0  0  0
   -2.8579   -0.0000    0.0000 C   0  0  0  0  0  0  0  0  0  0  0  0
   -3.5724   -1.2375    0.0000 C   0  0  0  0  0  0  0  0  0  0  0  0
   -4.2868   -1.6500    0.0000 C   0  0  0  0  0  0  0  0  0  0  0  0
   -5.0013   -1.2375    0.0000 O   0  0  0  0  0  0  0  0  0  0  0  0
   -5.7158   -1.6500    0.0000 C   0  0  0  0  0  0  0  0  0  0  0  0
   -5.7158   -2.4750    0.0000 C   0  0  0  0  0  0  0  0  0  0  0  0
   -6.4302   -2.8875    0.0000 C   0  0  0  0  0  0  0  0  0  0  0  0
   -7.1447   -2.4750    0.0000 C   0  0  0  0  0  0  0  0  0  0  0  0
   -7.1447   -1.6500    0.0000 N   0  0  0  0  0  0  0  0  0  0  0  0
   -6.4302   -1.2375    0.0000 C   0  0  0  0  0  0  0  0  0  0  0  0
   -7.8592   -1.2375    0.0000 C   0  0  0  0  0  0  0  0  0  0  0  0
   -8.5737   -1.6500    0.0000 C   0  0  0  0  0  0  0  0  0  0  0  0
   -8.5737   -2.4750    0.0000 C   0  0  0  0  0  0  0  0  0  0  0  0
   -9.2881   -2.8875    0.0000 O   0  0  0  0  0  0  0  0  0  0  0  0
   -7.8592   -2.8875    0.0000 N   0  0  0  0  0  0  0  0  0  0  0  0
   -7.8592   -3.7125    0.0000 C   0  0  0  0  0  0  0  0  0  0  0  0
   -7.1447   -4.1250    0.0000 C   0  0  0  0  0  0  0  0  0  0  0  0
   -7.1447   -4.9500    0.0000 C   0  0  0  0  0  0  0  0  0  0  0  0
   -7.8592   -5.3625    0.0000 C   0  0  0  0  0  0  0  0  0  0  0  0
   -8.5737   -4.9500    0.0000 C   0  0  0  0  0  0  0  0  0  0  0  0
   -8.5737   -4.1250    0.0000 C   0  0  0  0  0  0  0  0  0  0  0  0
   -9.2881   -1.2375    0.0000 C   0  0  0  0  0  0  0  0  0  0  0  0
  -10.0026   -1.6500    0.0000 F   0  0  0  0  0  0  0  0  0  0  0  0
   -9.2881   -0.4125    0.0000 C   0  0  0  0  0  0  0  0  0  0  0  0
   -8.5737   -0.0000    0.0000 C   0  0  0  0  0  0  0  0  0  0  0  0
   -7.8592   -0.4125    0.0000 C   0  0  0  0  0  0  0  0  0  0  0  0
   -4.2868   -2.4750    0.0000 C   0  0  0  0  0  0  0  0  0  0  0  0
   -3.5724   -2.8875    0.0000 C   0  0  0  0  0  0  0  0  0  0  0  0
   -2.8579   -2.4750    0.0000 C   0  0  0  0  0  0  0  0  0  0  0  0
   -2.8579   -1.6500    0.0000 C   0  0  0  0  0  0  0  0  0  0  0  0
  1  2  1  0  0  0  0
  2  3  1  0  0  0  0
  2  4  1  0  0  0  0
  4  5  2  0  0  0  0
  5  6  1  0  0  0  0
  6  7  1  0  0  0  0
  7  8  1  0  0  0  0
  8  9  1  0  0  0  0
  9 10  1  0  0  0  0
 10 11  1  0  0  0  0
 11 12  1  0  0  0  0
  7 12  1  0  0  0  0
 11 13  1  0  0  0  0
 13 14  2  0  0  0  0
 14 15  1  0  0  0  0
 15 16  2  0  0  0  0
 15 17  1  0  0  0  0
 17 18  1  0  0  0  0
 18 19  2  0  0  0  0
 19 20  1  0  0  0  0
 20 21  2  0  0  0  0
 21 22  1  0  0  0  0
 22 23  2  0  0  0  0
 18 23  1  0  0  0  0
 14 24  1  0  0  0  0
 24 25  1  0  0  0  0
 24 26  2  0  0  0  0
 26 27  1  0  0  0  0
 27 28  2  0  0  0  0
 13 28  1  0  0  0  0
  5 29  1  0  0  0  0
 29 30  2  0  0  0  0
 30 31  1  0  0  0  0
 31 32  2  0  0  0  0
  4 32  1  0  0  0  0
M  END
> <ID>
CPD_2835

$$$$
CPD_2840
  Mrv1822 09091914012D          

 30 32  0  0  0  0            999 V2000
   -2.9646    7.2402    0.0000 C   0  0  0  0  0  0  0  0  0  0  0  0
   -2.2501    6.8277    0.0000 O   0  0  0  0  0  0  0  0  0  0  0  0
   -2.2501    6.0027    0.0000 C   0  0  0  0  0  0  0  0  0  0  0  0
   -1.5356    5.5902    0.0000 C   0  0  0  0  0  0  0  0  0  0  0  0
   -0.8212    6.0027    0.0000 N   0  0  0  0  0  0  0  0  0  0  0  0
   -0.1067    5.5902    0.0000 C   0  0  0  0  0  0  0  0  0  0  0  0
    0.6078    6.0027    0.0000 C   0  0  0  0  0  0  0  0  0  0  0  0
    1.3222    5.5902    0.0000 C   0  0  0  0  0  0  0  0  0  0  0  0
    1.3222    4.7652    0.0000 C   0  0  0  0  0  0  0  0  0  0  0  0
    2.0367    4.3527    0.0000 S   0  0  0  0  0  0  0  0  0  0  0  0
    2.0367    3.5277    0.0000 C   0  0  0  0  0  0  0  0  0  0  0  0
    2.7041    3.0428    0.0000 C   0  0  0  0  0  0  0  0  0  0  0  0
    3.4888    3.2977    0.0000 C   0  0  0  0  0  0  0  0  0  0  0  0
    4.1019    2.7457    0.0000 O   0  0  0  0  0  0  0  0  0  0  0  0
    2.4492    2.2581    0.0000 C   0  0  0  0  0  0  0  0  0  0  0  0
    1.6242    2.2581    0.0000 N   0  0  0  0  0  0  0  0  0  0  0  0
    1.3693    3.0428    0.0000 N   0  0  0  0  0  0  0  0  0  0  0  0
    0.5846    3.2977    0.0000 C   0  0  0  0  0  0  0  0  0  0  0  0
    2.9341    1.5907    0.0000 C   0  0  0  0  0  0  0  0  0  0  0  0
    3.4191    0.9233    0.0000 F   0  0  0  0  0  0  0  0  0  0  0  0
    3.6016    2.0756    0.0000 F   0  0  0  0  0  0  0  0  0  0  0  0
    2.2667    1.1058    0.0000 F   0  0  0  0  0  0  0  0  0  0  0  0
    0.6078    4.3527    0.0000 C   0  0  0  0  0  0  0  0  0  0  0  0
   -0.1067    4.7652    0.0000 C   0  0  0  0  0  0  0  0  0  0  0  0
   -1.5356    4.7652    0.0000 C   0  0  0  0  0  0  0  0  0  0  0  0
   -2.2501    4.3527    0.0000 C   0  0  0  0  0  0  0  0  0  0  0  0
   -2.2501    3.5277    0.0000 F   0  0  0  0  0  0  0  0  0  0  0  0
   -2.9646    4.7652    0.0000 C   0  0  0  0  0  0  0  0  0  0  0  0
   -3.6791    4.3527    0.0000 Br  0  0  0  0  0  0  0  0  0  0  0  0
   -2.9646    5.5902    0.0000 C   0  0  0  0  0  0  0  0  0  0  0  0
  1  2  1  0  0  0  0
  2  3  1  0  0  0  0
  3  4  2  0  0  0  0
  4  5  1  0  0  0  0
  5  6  1  0  0  0  0
  6  7  2  0  0  0  0
  7  8  1  0  0  0  0
  8  9  2  0  0  0  0
  9 10  1  0  0  0  0
 10 11  1  0  0  0  0
 11 12  2  0  0  0  0
 12 13  1  0  0  0  0
 13 14  1  0  0  0  0
 12 15  1  0  0  0  0
 15 16  2  0  0  0  0
 16 17  1  0  0  0  0
 11 17  1  0  0  0  0
 17 18  1  0  0  0  0
 15 19  1  0  0  0  0
 19 20  1  0  0  0  0
 19 21  1  0  0  0  0
 19 22  1  0  0  0  0
  9 23  1  0  0  0  0
 23 24  2  0  0  0  0
  6 24  1  0  0  0  0
  4 25  1  0  0  0  0
 25 26  2  0  0  0  0
 26 27  1  0  0  0  0
 26 28  1  0  0  0  0
 28 29  1  0  0  0  0
 28 30  2  0  0  0  0
  3 30  1  0  0  0  0
M  END
> <ID>
CPD_2840

$$$$
CPD_2845
  Mrv1822 09091914012D          

 21 22  0  0  0  0            999 V2000
    1.4289    0.0000    0.0000 C   0  0  0  0  0  0  0  0  0  0  0  0
    2.1434   -0.4125    0.0000 O   0  0  0  0  0  0  0  0  0  0  0  0
    2.1434   -1.2375    0.0000 C   0  0  0  0  0  0  0  0  0  0  0  0
    2.8579   -1.6500    0.0000 C   0  0  0  0  0  0  0  0  0  0  0  0
    3.5724   -1.2375    0.0000 N   0  0  0  0  0  0  0  0  0  0  0  0
    4.2868   -1.6500    0.0000 C   0  0  0  0  0  0  0  0  0  0  0  0
    5.0013   -1.2375    0.0000 N   0  0  0  0  0  0  0  0  0  0  0  0
    5.7158   -1.6500    0.0000 C   0  0  0  0  0  0  0  0  0  0  0  0
    5.7158   -2.4750    0.0000 C   0  0  0  0  0  0  0  0  0  0  0  0
    6.4302   -2.8875    0.0000 Br  0  0  0  0  0  0  0  0  0  0  0  0
    5.0013   -2.8875    0.0000 C   0  0  0  0  0  0  0  0  0  0  0  0
    4.2868   -2.4750    0.0000 C   0  0  0  0  0  0  0  0  0  0  0  0
    5.0013   -3.7125    0.0000 C   0  0  0  0  0  0  0  0  0  0  0  0
    4.2868   -4.1250    0.0000 O   0  0  0  0  0  0  0  0  0  0  0  0
    5.7158   -4.1250    0.0000 O   0  0  0  0  0  0  0  0  0  0  0  0
    2.8579   -2.4750    0.0000 C   0  0  0  0  0  0  0  0  0  0  0  0
    2.1434   -2.8875    0.0000 C   0  0  0  0  0  0  0  0  0  0  0  0
    2.1434   -3.7125    0.0000 F   0  0  0  0  0  0  0  0  0  0  0  0
    1.4289   -2.4750    0.0000 C   0  0  0  0  0  0  0  0  0  0  0  0
    0.7145   -2.8875    0.0000 Br  0  0  0  0  0  0  0  0  0  0  0  0
    1.4289   -1.6500    0.0000 C   0  0  0  0  0  0  0  0  0  0  0  0
  1  2  1  0  0  0  0
  2  3  1  0  0  0  0
  3  4  2  0  0  0  0
  4  5  1  0  0  0  0
  5  6  1  0  0  0  0
  6  7  2  0  0  0  0
  7  8  1  0  0  0  0
  8  9  2  0  0  0  0
  9 10  1  0  0  0  0
  9 11  1  0  0  0  0
 11 12  2  0  0  0  0
  6 12  1  0  0  0  0
 11 13  1  0  0  0  0
 13 14  1  0  0  0  0
 13 15  2  0  0  0  0
  4 16  1  0  0  0  0
 16 17  2  0  0  0  0
 17 18  1  0  0  0  0
 17 19  1  0  0  0  0
 19 20  1  0  0  0  0
 19 21  2  0  0  0  0
  3 21  1  0  0  0  0
M  END
> <ID>
CPD_2845

$$$$
CPD_2850
  Mrv1822 09091914012D          

 23 25  0  0  0  0            999 V2000
   -3.5724   -2.8875    0.0000 C   0  0  0  0  0  0  0  0  0  0  0  0
   -2.8579   -2.4750    0.0000 O   0  0  0  0  0  0  0  0  0  0  0  0
   -2.1434   -2.8875    0.0000 C   0  0  0  0  0  0  0  0  0  0  0  0
   -1.4289   -2.4750    0.0000 C   0  0  0  0  0  0  0  0  0  0  0  0
   -1.4289   -1.6500    0.0000 N   0  0  0  0  0  0  0  0  0  0  0  0
   -0.7145   -1.2375    0.0000 C   0  0  0  0  0  0  0  0  0  0  0  0
    0.0000   -1.6500    0.0000 C   0  0  0  0  0  0  0  0  0  0  0  0
    0.7145   -1.2375    0.0000 C   0  0  0  0  0  0  0  0  0  0  0  0
    0.7145   -0.4125    0.0000 C   0  0  0  0  0  0  0  0  0  0  0  0
    1.4289   -0.0000    0.0000 O   0  0  0  0  0  0  0  0  0  0  0  0
    2.1434   -0.4125    0.0000 C   0  0  0  0  0  0  0  0  0  0  0  0
    2.8579   -0.0000    0.0000 O   0  0  0  0  0  0  0  0  0  0  0  0
    2.1434   -1.2375    0.0000 C   0  0  0  0  0  0  0  0  0  0  0  0
    1.4289   -1.6500    0.0000 C   0  0  0  0  0  0  0  0  0  0  0  0
    1.4289   -2.4750    0.0000 O   0  0  0  0  0  0  0  0  0  0  0  0
    0.0000   -0.0000    0.0000 C   0  0  0  0  0  0  0  0  0  0  0  0
   -0.7145   -0.4125    0.0000 C   0  0  0  0  0  0  0  0  0  0  0  0
   -0.7145   -2.8875    0.0000 C   0  0  0  0  0  0  0  0  0  0  0  0
   -0.7145   -3.7125    0.0000 C   0  0  0  0  0  0  0  0  0  0  0  0
   -0.0000   -4.1250    0.0000 F   0  0  0  0  0  0  0  0  0  0  0  0
   -1.4289   -4.1250    0.0000 C   0  0  0  0  0  0  0  0  0  0  0  0
   -1.4289   -4.9500    0.0000 Br  0  0  0  0  0  0  0  0  0  0  0  0
   -2.1434   -3.7125    0.0000 C   0  0  0  0  0  0  0  0  0  0  0  0
  1  2  1  0  0  0  0
  2  3  1  0  0  0  0
  3  4  2  0  0  0  0
  4  5  1  0  0  0  0
  5  6  1  0  0  0  0
  6  7  2  0  0  0  0
  7  8  1  0  0  0  0
  8  9  2  0  0  0  0
  9 10  1  0  0  0  0
 10 11  1  0  0  0  0
 11 12  2  0  0  0  0
 11 13  1  0  0  0  0
 13 14  2  0  0  0  0
  8 14  1  0  0  0  0
 14 15  1  0  0  0  0
  9 16  1  0  0  0  0
 16 17  2  0  0  0  0
  6 17  1  0  0  0  0
  4 18  1  0  0  0  0
 18 19  2  0  0  0  0
 19 20  1  0  0  0  0
 19 21  1  0  0  0  0
 21 22  1  0  0  0  0
 21 23  2  0  0  0  0
  3 23  1  0  0  0  0
M  END
> <ID>
CPD_2850

$$$$
CPD_2855
  Mrv1822 09091914012D          

 23 24  0  0  0  0            999 V2000
   -3.5724   -1.2375    0.0000 C   0  0  0  0  0  0  0  0  0  0  0  0
   -2.8579   -1.6500    0.0000 C   0  0  0  0  0  0  0  0  0  0  0  0
   -2.1434   -1.2375    0.0000 C   0  0  0  0  0  0  0  0  0  0  0  0
   -1.4289   -1.6500    0.0000 N   0  0  0  0  0  0  0  0  0  0  0  0
   -0.7145   -1.2375    0.0000 C   0  0  0  0  0  0  0  0  0  0  0  0
   -0.7145   -0.4125    0.0000 O   0  0  0  0  0  0  0  0  0  0  0  0
    0.0000   -1.6500    0.0000 C   0  0  0  0  0  0  0  0  0  0  0  0
    0.7145   -1.2375    0.0000 C   0  0  0  0  0  0  0  0  0  0  0  0
    1.4289   -1.6500    0.0000 C   0  0  0  0  0  0  0  0  0  0  0  0
    1.4289   -2.4750    0.0000 C   0  0  0  0  0  0  0  0  0  0  0  0
    0.7145   -2.8875    0.0000 C   0  0  0  0  0  0  0  0  0  0  0  0
    0.0000   -2.4750    0.0000 C   0  0  0  0  0  0  0  0  0  0  0  0
    0.7145   -0.4125    0.0000 N   0  0  0  0  0  0  0  0  0  0  0  0
    0.0000   -0.0000    0.0000 C   0  0  0  0  0  0  0  0  0  0  0  0
    0.0000    0.8250    0.0000 C   0  0  0  0  0  0  0  0  0  0  0  0
    0.7145    1.2375    0.0000 N   0  0  0  0  0  0  0  0  0  0  0  0
    0.7145    2.0625    0.0000 C   0  0  0  0  0  0  0  0  0  0  0  0
    0.0000    2.4750    0.0000 C   0  0  0  0  0  0  0  0  0  0  0  0
   -0.7145    2.0625    0.0000 O   0  0  0  0  0  0  0  0  0  0  0  0
    0.0000    3.3000    0.0000 O   0  0  0  0  0  0  0  0  0  0  0  0
   -0.7145    3.7125    0.0000 C   0  0  0  0  0  0  0  0  0  0  0  0
    1.4289    0.8250    0.0000 C   0  0  0  0  0  0  0  0  0  0  0  0
    1.4289   -0.0000    0.0000 C   0  0  0  0  0  0  0  0  0  0  0  0
  1  2  1  0  0  0  0
  2  3  1  0  0  0  0
  3  4  1  0  0  0  0
  4  5  1  0  0  0  0
  5  6  2  0  0  0  0
  5  7  1  0  0  0  0
  7  8  2  0  0  0  0
  8  9  1  0  0  0  0
  9 10  2  0  0  0  0
 10 11  1  0  0  0  0
 11 12  2  0  0  0  0
  7 12  1  0  0  0  0
  8 13  1  0  0  0  0
 13 14  1  0  0  0  0
 14 15  1  0  0  0  0
 15 16  1  0  0  0  0
 16 17  1  0  0  0  0
 17 18  1  0  0  0  0
 18 19  2  0  0  0  0
 18 20  1  0  0  0  0
 20 21  1  0  0  0  0
 16 22  1  0  0  0  0
 22 23  1  0  0  0  0
 13 23  1  0  0  0  0
M  END
> <ID>
CPD_2855

$$$$
CPD_2860
  Mrv1822 09091914012D          

 22 23  0  0  0  0            999 V2000
   -0.7145    1.2375    0.0000 C   0  0  0  0  0  0  0  0  0  0  0  0
    0.0000    0.8250    0.0000 O   0  0  0  0  0  0  0  0  0  0  0  0
    0.0000    0.0000    0.0000 C   0  0  0  0  0  0  0  0  0  0  0  0
   -0.7145   -0.4125    0.0000 O   0  0  0  0  0  0  0  0  0  0  0  0
    0.7145   -0.4125    0.0000 C   0  0  0  0  0  0  0  0  0  0  0  0
    0.7145   -1.2375    0.0000 N   0  0  0  0  0  0  0  0  0  0  0  0
    1.4289   -1.6500    0.0000 C   0  0  0  0  0  0  0  0  0  0  0  0
    1.4289   -2.4750    0.0000 C   0  0  0  0  0  0  0  0  0  0  0  0
    0.7145   -2.8875    0.0000 N   0  0  0  0  0  0  0  0  0  0  0  0
    0.0000   -2.4750    0.0000 C   0  0  0  0  0  0  0  0  0  0  0  0
    0.0000   -1.6500    0.0000 C   0  0  0  0  0  0  0  0  0  0  0  0
    0.7145   -3.7125    0.0000 C   0  0  0  0  0  0  0  0  0  0  0  0
    1.4289   -4.1250    0.0000 C   0  0  0  0  0  0  0  0  0  0  0  0
    1.4289   -4.9500    0.0000 C   0  0  0  0  0  0  0  0  0  0  0  0
    2.1434   -5.3625    0.0000 O   0  0  0  0  0  0  0  0  0  0  0  0
    2.8579   -4.9500    0.0000 C   0  0  0  0  0  0  0  0  0  0  0  0
    0.7145   -5.3625    0.0000 N   0  0  0  0  0  0  0  0  0  0  0  0
   -0.0000   -4.9500    0.0000 C   0  0  0  0  0  0  0  0  0  0  0  0
    0.0000   -4.1250    0.0000 N   0  0  0  0  0  0  0  0  0  0  0  0
   -0.7145   -5.3625    0.0000 N   0  0  0  0  0  0  0  0  0  0  0  0
   -1.4289   -4.9500    0.0000 C   0  0  0  0  0  0  0  0  0  0  0  0
   -0.7145   -6.1875    0.0000 C   0  0  0  0  0  0  0  0  0  0  0  0
  1  2  1  0  0  0  0
  2  3  1  0  0  0  0
  3  4  2  0  0  0  0
  3  5  1  0  0  0  0
  5  6  1  0  0  0  0
  6  7  1  0  0  0  0
  7  8  1  0  0  0  0
  8  9  1  0  0  0  0
  9 10  1  0  0  0  0
 10 11  1  0  0  0  0
  6 11  1  0  0  0  0
  9 12  1  0  0  0  0
 12 13  2  0  0  0  0
 13 14  1  0  0  0  0
 14 15  1  0  0  0  0
 15 16  1  0  0  0  0
 14 17  2  0  0  0  0
 17 18  1  0  0  0  0
 18 19  2  0  0  0  0
 12 19  1  0  0  0  0
 18 20  1  0  0  0  0
 20 21  1  0  0  0  0
 20 22  1  0  0  0  0
M  END
> <ID>
CPD_2860

$$$$
CPD_2865
  Mrv1822 09091914012D          

 25 26  0  0  0  0            999 V2000
   -0.7145    1.2375    0.0000 C   0  0  0  0  0  0  0  0  0  0  0  0
    0.0000    0.8250    0.0000 O   0  0  0  0  0  0  0  0  0  0  0  0
    0.0000    0.0000    0.0000 C   0  0  0  0  0  0  0  0  0  0  0  0
   -0.7145   -0.4125    0.0000 O   0  0  0  0  0  0  0  0  0  0  0  0
    0.7145   -0.4125    0.0000 C   0  0  0  0  0  0  0  0  0  0  0  0
    0.7145   -1.2375    0.0000 N   0  0  0  0  0  0  0  0  0  0  0  0
    1.4289   -1.6500    0.0000 C   0  0  0  0  0  0  0  0  0  0  0  0
    1.4289   -2.4750    0.0000 C   0  0  0  0  0  0  0  0  0  0  0  0
    0.7145   -2.8875    0.0000 N   0  0  0  0  0  0  0  0  0  0  0  0
    0.0000   -2.4750    0.0000 C   0  0  0  0  0  0  0  0  0  0  0  0
    0.0000   -1.6500    0.0000 C   0  0  0  0  0  0  0  0  0  0  0  0
    0.7145   -3.7125    0.0000 C   0  0  0  0  0  0  0  0  0  0  0  0
    1.4289   -4.1250    0.0000 N   0  0  0  0  0  0  0  0  0  0  0  0
    1.4289   -4.9500    0.0000 C   0  0  0  0  0  0  0  0  0  0  0  0
    2.1434   -5.3625    0.0000 C   0  0  0  0  0  0  0  0  0  0  0  0
    2.1434   -6.1875    0.0000 O   0  0  0  0  0  0  0  0  0  0  0  0
    2.8579   -4.9500    0.0000 N   0  0  0  0  0  0  0  0  0  0  0  0
    3.5724   -5.3625    0.0000 C   0  0  0  0  0  0  0  0  0  0  0  0
    3.5724   -6.1875    0.0000 N   0  0  0  0  0  0  0  0  0  0  0  0
    4.2868   -4.9500    0.0000 N   0  0  0  0  0  0  0  0  0  0  0  0
    0.7145   -5.3625    0.0000 C   0  0  0  0  0  0  0  0  0  0  0  0
    0.7145   -6.1875    0.0000 N   0  0  0  0  0  0  0  0  0  0  0  0
   -0.0000   -4.9500    0.0000 N   0  0  0  0  0  0  0  0  0  0  0  0
    0.0000   -4.1250    0.0000 C   0  0  0  0  0  0  0  0  0  0  0  0
   -0.7145   -3.7125    0.0000 N   0  0  0  0  0  0  0  0  0  0  0  0
  1  2  1  0  0  0  0
  2  3  1  0  0  0  0
  3  4  2  0  0  0  0
  3  5  1  0  0  0  0
  5  6  1  0  0  0  0
  6  7  1  0  0  0  0
  7  8  1  0  0  0  0
  8  9  1  0  0  0  0
  9 10  1  0  0  0  0
 10 11  1  0  0  0  0
  6 11  1  0  0  0  0
  9 12  1  0  0  0  0
 12 13  2  0  0  0  0
 13 14  1  0  0  0  0
 14 15  1  0  0  0  0
 15 16  2  0  0  0  0
 15 17  1  0  0  0  0
 17 18  1  0  0  0  0
 18 19  1  0  0  0  0
 18 20  2  0  0  0  0
 14 21  2  0  0  0  0
 21 22  1  0  0  0  0
 21 23  1  0  0  0  0
 23 24  2  0  0  0  0
 12 24  1  0  0  0  0
 24 25  1  0  0  0  0
M  END
> <ID>
CPD_2865

$$$$
CPD_2870
  Mrv1822 09091914012D          

 29 30  0  0  0  0            999 V2000
    3.5724    1.2375    0.0000 C   0  0  0  0  0  0  0  0  0  0  0  0
    2.8579    0.8250    0.0000 C   0  0  0  0  0  0  0  0  0  0  0  0
    2.8579    0.0000    0.0000 N   0  0  0  0  0  0  0  0  0  0  0  0
    3.5724   -0.4125    0.0000 C   0  0  0  0  0  0  0  0  0  0  0  0
    3.5724   -1.2375    0.0000 C   0  0  0  0  0  0  0  0  0  0  0  0
    2.1434   -0.4125    0.0000 C   0  0  0  0  0  0  0  0  0  0  0  0
    1.4289    0.0000    0.0000 O   0  0  0  0  0  0  0  0  0  0  0  0
    2.1434   -1.2375    0.0000 C   0  0  0  0  0  0  0  0  0  0  0  0
    2.8579   -1.6500    0.0000 C   0  0  0  0  0  0  0  0  0  0  0  0
    2.8579   -2.4750    0.0000 C   0  0  0  0  0  0  0  0  0  0  0  0
    3.5724   -2.8875    0.0000 O   0  0  0  0  0  0  0  0  0  0  0  0
    3.5724   -3.7125    0.0000 C   0  0  0  0  0  0  0  0  0  0  0  0
    2.1434   -2.8875    0.0000 C   0  0  0  0  0  0  0  0  0  0  0  0
    2.1434   -3.7125    0.0000 O   0  0  0  0  0  0  0  0  0  0  0  0
    1.4289   -2.4750    0.0000 C   0  0  0  0  0  0  0  0  0  0  0  0
    0.7145   -2.8875    0.0000 N   0  0  0  0  0  0  0  0  0  0  0  0
    0.0000   -2.4750    0.0000 C   0  0  0  0  0  0  0  0  0  0  0  0
   -0.7145   -2.8875    0.0000 C   0  0  0  0  0  0  0  0  0  0  0  0
   -1.4289   -2.4750    0.0000 C   0  0  0  0  0  0  0  0  0  0  0  0
   -1.4289   -1.6500    0.0000 C   0  0  0  0  0  0  0  0  0  0  0  0
   -0.7145   -1.2375    0.0000 C   0  0  0  0  0  0  0  0  0  0  0  0
    0.0000   -1.6500    0.0000 C   0  0  0  0  0  0  0  0  0  0  0  0
   -2.1434   -2.8875    0.0000 C   0  0  0  0  0  0  0  0  0  0  0  0
   -2.8579   -2.4750    0.0000 N   0  0  0  0  0  0  0  0  0  0  0  0
   -2.1434   -3.7125    0.0000 C   0  0  0  0  0  0  0  0  0  0  0  0
   -1.4289   -4.1250    0.0000 O   0  0  0  0  0  0  0  0  0  0  0  0
   -2.8579   -4.1250    0.0000 O   0  0  0  0  0  0  0  0  0  0  0  0
   -2.8579   -4.9500    0.0000 C   0  0  0  0  0  0  0  0  0  0  0  0
    1.4289   -1.6500    0.0000 C   0  0  0  0  0  0  0  0  0  0  0  0
  1  2  1  0  0  0  0
  2  3  1  0  0  0  0
  3  4  1  0  0  0  0
  4  5  1  0  0  0  0
  3  6  1  0  0  0  0
  6  7  2  0  0  0  0
  6  8  1  0  0  0  0
  8  9  2  0  0  0  0
  9 10  1  0  0  0  0
 10 11  1  0  0  0  0
 11 12  1  0  0  0  0
 10 13  2  0  0  0  0
 13 14  1  0  0  0  0
 13 15  1  0  0  0  0
 15 16  1  0  0  0  0
 16 17  1  0  0  0  0
 17 18  2  0  0  0  0
 18 19  1  0  0  0  0
 19 20  2  0  0  0  0
 20 21  1  0  0  0  0
 21 22  2  0  0  0  0
 17 22  1  0  0  0  0
 19 23  1  0  0  0  0
 23 24  1  0  0  0  0
 23 25  1  0  0  0  0
 25 26  2  0  0  0  0
 25 27  1  0  0  0  0
 27 28  1  0  0  0  0
 15 29  2  0  0  0  0
  8 29  1  0  0  0  0
M  END
> <ID>
CPD_2870

$$$$
CPD_2875
  Mrv1822 09091914012D          

 32 34  0  0  0  0            999 V2000
   -3.6791    1.1759    0.0000 C   0  0  0  0  0  0  0  0  0  0  0  0
   -2.9646    0.7634    0.0000 C   0  0  0  0  0  0  0  0  0  0  0  0
   -2.2501    1.1759    0.0000 N   0  0  0  0  0  0  0  0  0  0  0  0
   -2.2501    2.0009    0.0000 C   0  0  0  0  0  0  0  0  0  0  0  0
   -1.5356    2.4134    0.0000 C   0  0  0  0  0  0  0  0  0  0  0  0
   -1.5356    0.7634    0.0000 C   0  0  0  0  0  0  0  0  0  0  0  0
   -1.5356   -0.0616    0.0000 O   0  0  0  0  0  0  0  0  0  0  0  0
   -0.8212    1.1759    0.0000 C   0  0  0  0  0  0  0  0  0  0  0  0
   -0.8212    2.0009    0.0000 C   0  0  0  0  0  0  0  0  0  0  0  0
   -0.1067    2.4134    0.0000 C   0  0  0  0  0  0  0  0  0  0  0  0
   -0.1067    3.2384    0.0000 O   0  0  0  0  0  0  0  0  0  0  0  0
    0.6078    3.6509    0.0000 C   0  0  0  0  0  0  0  0  0  0  0  0
    0.6078    2.0009    0.0000 C   0  0  0  0  0  0  0  0  0  0  0  0
    1.3222    2.4134    0.0000 O   0  0  0  0  0  0  0  0  0  0  0  0
    0.6078    1.1759    0.0000 C   0  0  0  0  0  0  0  0  0  0  0  0
    1.3222    0.7634    0.0000 N   0  0  0  0  0  0  0  0  0  0  0  0
    2.0367    1.1759    0.0000 C   0  0  0  0  0  0  0  0  0  0  0  0
    2.0367    2.0009    0.0000 C   0  0  0  0  0  0  0  0  0  0  0  0
    2.7512    2.4134    0.0000 C   0  0  0  0  0  0  0  0  0  0  0  0
    3.4656    2.0009    0.0000 C   0  0  0  0  0  0  0  0  0  0  0  0
    3.4656    1.1759    0.0000 C   0  0  0  0  0  0  0  0  0  0  0  0
    2.7512    0.7634    0.0000 C   0  0  0  0  0  0  0  0  0  0  0  0
    2.7512   -0.0616    0.0000 C   0  0  0  0  0  0  0  0  0  0  0  0
    3.4186   -0.5465    0.0000 N   0  0  0  0  0  0  0  0  0  0  0  0
    3.1637   -1.3312    0.0000 C   0  0  0  0  0  0  0  0  0  0  0  0
    3.6486   -1.9986    0.0000 C   0  0  0  0  0  0  0  0  0  0  0  0
    4.4691   -1.9124    0.0000 C   0  0  0  0  0  0  0  0  0  0  0  0
    4.9540   -2.5798    0.0000 N   0  0  0  0  0  0  0  0  0  0  0  0
    5.7745   -2.4936    0.0000 C   0  0  0  0  0  0  0  0  0  0  0  0
    2.3387   -1.3312    0.0000 N   0  0  0  0  0  0  0  0  0  0  0  0
    2.0837   -0.5465    0.0000 O   0  0  0  0  0  0  0  0  0  0  0  0
   -0.1067    0.7634    0.0000 C   0  0  0  0  0  0  0  0  0  0  0  0
  1  2  1  0  0  0  0
  2  3  1  0  0  0  0
  3  4  1  0  0  0  0
  4  5  1  0  0  0  0
  3  6  1  0  0  0  0
  6  7  2  0  0  0  0
  6  8  1  0  0  0  0
  8  9  2  0  0  0  0
  9 10  1  0  0  0  0
 10 11  1  0  0  0  0
 11 12  1  0  0  0  0
 10 13  2  0  0  0  0
 13 14  1  0  0  0  0
 13 15  1  0  0  0  0
 15 16  1  0  0  0  0
 16 17  1  0  0  0  0
 17 18  2  0  0  0  0
 18 19  1  0  0  0  0
 19 20  2  0  0  0  0
 20 21  1  0  0  0  0
 21 22  2  0  0  0  0
 17 22  1  0  0  0  0
 22 23  1  0  0  0  0
 23 24  2  0  0  0  0
 24 25  1  0  0  0  0
 25 26  1  0  0  0  0
 26 27  1  0  0  0  0
 27 28  1  0  0  0  0
 28 29  1  0  0  0  0
 25 30  2  0  0  0  0
 30 31  1  0  0  0  0
 23 31  1  0  0  0  0
 15 32  2  0  0  0  0
  8 32  1  0  0  0  0
M  END
> <ID>
CPD_2875

$$$$
CPD_2880
  Mrv1822 09091914012D          

 31 33  0  0  0  0            999 V2000
    1.4289   -2.4750    0.0000 C   0  0  0  0  0  0  0  0  0  0  0  0
    0.7145   -2.8875    0.0000 C   0  0  0  0  0  0  0  0  0  0  0  0
    0.7145   -3.7125    0.0000 N   0  0  0  0  0  0  0  0  0  0  0  0
    1.4289   -4.1250    0.0000 C   0  0  0  0  0  0  0  0  0  0  0  0
    1.4289   -4.9500    0.0000 C   0  0  0  0  0  0  0  0  0  0  0  0
    0.0000   -4.1250    0.0000 C   0  0  0  0  0  0  0  0  0  0  0  0
   -0.7145   -3.7125    0.0000 O   0  0  0  0  0  0  0  0  0  0  0  0
    0.0000   -4.9500    0.0000 C   0  0  0  0  0  0  0  0  0  0  0  0
    0.7145   -5.3625    0.0000 C   0  0  0  0  0  0  0  0  0  0  0  0
    0.7145   -6.1875    0.0000 C   0  0  0  0  0  0  0  0  0  0  0  0
    1.4289   -6.6000    0.0000 O   0  0  0  0  0  0  0  0  0  0  0  0
    1.4289   -7.4250    0.0000 C   0  0  0  0  0  0  0  0  0  0  0  0
    0.0000   -6.6000    0.0000 C   0  0  0  0  0  0  0  0  0  0  0  0
    0.0000   -7.4250    0.0000 O   0  0  0  0  0  0  0  0  0  0  0  0
   -0.7145   -6.1875    0.0000 C   0  0  0  0  0  0  0  0  0  0  0  0
   -1.4289   -6.6000    0.0000 N   0  0  0  0  0  0  0  0  0  0  0  0
   -1.4289   -7.4250    0.0000 C   0  0  0  0  0  0  0  0  0  0  0  0
   -0.7145   -7.8375    0.0000 C   0  0  0  0  0  0  0  0  0  0  0  0
   -0.7145   -8.6625    0.0000 C   0  0  0  0  0  0  0  0  0  0  0  0
   -1.4289   -9.0750    0.0000 C   0  0  0  0  0  0  0  0  0  0  0  0
   -1.4289   -9.9000    0.0000 C   0  0  0  0  0  0  0  0  0  0  0  0
   -0.7145  -10.3125    0.0000 N   0  0  0  0  0  0  0  0  0  0  0  0
   -0.7145  -11.1375    0.0000 C   0  0  0  0  0  0  0  0  0  0  0  0
    0.0000  -11.5500    0.0000 C   0  0  0  0  0  0  0  0  0  0  0  0
    0.0000  -12.3750    0.0000 C   0  0  0  0  0  0  0  0  0  0  0  0
   -0.7145  -12.7875    0.0000 C   0  0  0  0  0  0  0  0  0  0  0  0
   -1.4289  -12.3750    0.0000 C   0  0  0  0  0  0  0  0  0  0  0  0
   -1.4289  -11.5500    0.0000 C   0  0  0  0  0  0  0  0  0  0  0  0
   -2.1434   -8.6625    0.0000 C   0  0  0  0  0  0  0  0  0  0  0  0
   -2.1434   -7.8375    0.0000 C   0  0  0  0  0  0  0  0  0  0  0  0
   -0.7145   -5.3625    0.0000 C   0  0  0  0  0  0  0  0  0  0  0  0
  1  2  1  0  0  0  0
  2  3  1  0  0  0  0
  3  4  1  0  0  0  0
  4  5  1  0  0  0  0
  3  6  1  0  0  0  0
  6  7  2  0  0  0  0
  6  8  1  0  0  0  0
  8  9  2  0  0  0  0
  9 10  1  0  0  0  0
 10 11  1  0  0  0  0
 11 12  1  0  0  0  0
 10 13  2  0  0  0  0
 13 14  1  0  0  0  0
 13 15  1  0  0  0  0
 15 16  1  0  0  0  0
 16 17  1  0  0  0  0
 17 18  2  0  0  0  0
 18 19  1  0  0  0  0
 19 20  2  0  0  0  0
 20 21  1  0  0  0  0
 21 22  1  0  0  0  0
 22 23  1  0  0  0  0
 23 24  1  0  0  0  0
 24 25  1  0  0  0  0
 25 26  1  0  0  0  0
 26 27  1  0  0  0  0
 27 28  1  0  0  0  0
 23 28  1  0  0  0  0
 20 29  1  0  0  0  0
 29 30  2  0  0  0  0
 17 30  1  0  0  0  0
 15 31  2  0  0  0  0
  8 31  1  0  0  0  0
M  END
> <ID>
CPD_2880

$$$$
CPD_2885
  Mrv1822 09091914012D          

 27 29  0  0  0  0            999 V2000
    5.6424    4.8229    0.0000 C   0  0  0  0  0  0  0  0  0  0  0  0
    4.9279    4.4104    0.0000 C   0  0  0  0  0  0  0  0  0  0  0  0
    4.9279    3.5854    0.0000 N   0  0  0  0  0  0  0  0  0  0  0  0
    5.6424    3.1729    0.0000 C   0  0  0  0  0  0  0  0  0  0  0  0
    5.6424    2.3479    0.0000 C   0  0  0  0  0  0  0  0  0  0  0  0
    4.2135    3.1729    0.0000 C   0  0  0  0  0  0  0  0  0  0  0  0
    3.4990    3.5854    0.0000 O   0  0  0  0  0  0  0  0  0  0  0  0
    4.2135    2.3479    0.0000 C   0  0  0  0  0  0  0  0  0  0  0  0
    4.9279    1.9354    0.0000 C   0  0  0  0  0  0  0  0  0  0  0  0
    4.9279    1.1104    0.0000 C   0  0  0  0  0  0  0  0  0  0  0  0
    5.6424    0.6979    0.0000 O   0  0  0  0  0  0  0  0  0  0  0  0
    5.6424   -0.1271    0.0000 C   0  0  0  0  0  0  0  0  0  0  0  0
    4.2135    0.6979    0.0000 C   0  0  0  0  0  0  0  0  0  0  0  0
    4.2135   -0.1271    0.0000 O   0  0  0  0  0  0  0  0  0  0  0  0
    3.4990    1.1104    0.0000 C   0  0  0  0  0  0  0  0  0  0  0  0
    2.7845    0.6979    0.0000 N   0  0  0  0  0  0  0  0  0  0  0  0
    2.0701    1.1104    0.0000 C   0  0  0  0  0  0  0  0  0  0  0  0
    1.3556    0.6979    0.0000 C   0  0  0  0  0  0  0  0  0  0  0  0
    0.6411    1.1104    0.0000 C   0  0  0  0  0  0  0  0  0  0  0  0
   -0.1435    0.8555    0.0000 N   0  0  0  0  0  0  0  0  0  0  0  0
   -0.6284    1.5229    0.0000 N   0  0  0  0  0  0  0  0  0  0  0  0
   -0.1435    2.1904    0.0000 C   0  0  0  0  0  0  0  0  0  0  0  0
   -0.3984    2.9750    0.0000 C   0  0  0  0  0  0  0  0  0  0  0  0
    0.6411    1.9354    0.0000 N   0  0  0  0  0  0  0  0  0  0  0  0
    1.3556    2.3479    0.0000 C   0  0  0  0  0  0  0  0  0  0  0  0
    2.0701    1.9354    0.0000 C   0  0  0  0  0  0  0  0  0  0  0  0
    3.4990    1.9354    0.0000 C   0  0  0  0  0  0  0  0  0  0  0  0
  1  2  1  0  0  0  0
  2  3  1  0  0  0  0
  3  4  1  0  0  0  0
  4  5  1  0  0  0  0
  3  6  1  0  0  0  0
  6  7  2  0  0  0  0
  6  8  1  0  0  0  0
  8  9  2  0  0  0  0
  9 10  1  0  0  0  0
 10 11  1  0  0  0  0
 11 12  1  0  0  0  0
 10 13  2  0  0  0  0
 13 14  1  0  0  0  0
 13 15  1  0  0  0  0
 15 16  1  0  0  0  0
 16 17  1  0  0  0  0
 17 18  2  0  0  0  0
 18 19  1  0  0  0  0
 19 20  2  0  0  0  0
 20 21  1  0  0  0  0
 21 22  2  0  0  0  0
 22 23  1  0  0  0  0
 22 24  1  0  0  0  0
 19 24  1  0  0  0  0
 24 25  1  0  0  0  0
 25 26  2  0  0  0  0
 17 26  1  0  0  0  0
 15 27  2  0  0  0  0
  8 27  1  0  0  0  0
M  END
> <ID>
CPD_2885

$$$$
CPD_2890
  Mrv1822 09091914012D          

 31 33  0  0  0  0            999 V2000
   -0.7145   -1.2375    0.0000 C   0  0  0  0  0  0  0  0  0  0  0  0
   -1.4289   -1.6500    0.0000 C   0  0  0  0  0  0  0  0  0  0  0  0
   -1.4289   -2.4750    0.0000 N   0  0  0  0  0  0  0  0  0  0  0  0
   -0.7145   -2.8875    0.0000 C   0  0  0  0  0  0  0  0  0  0  0  0
   -0.7145   -3.7125    0.0000 C   0  0  0  0  0  0  0  0  0  0  0  0
   -2.1434   -2.8875    0.0000 C   0  0  0  0  0  0  0  0  0  0  0  0
   -2.8579   -2.4750    0.0000 O   0  0  0  0  0  0  0  0  0  0  0  0
   -2.1434   -3.7125    0.0000 C   0  0  0  0  0  0  0  0  0  0  0  0
   -1.4289   -4.1250    0.0000 C   0  0  0  0  0  0  0  0  0  0  0  0
   -1.4289   -4.9500    0.0000 C   0  0  0  0  0  0  0  0  0  0  0  0
   -0.7145   -5.3625    0.0000 O   0  0  0  0  0  0  0  0  0  0  0  0
   -0.7145   -6.1875    0.0000 C   0  0  0  0  0  0  0  0  0  0  0  0
   -2.1434   -5.3625    0.0000 C   0  0  0  0  0  0  0  0  0  0  0  0
   -2.1434   -6.1875    0.0000 O   0  0  0  0  0  0  0  0  0  0  0  0
   -2.8579   -4.9500    0.0000 C   0  0  0  0  0  0  0  0  0  0  0  0
   -3.5724   -5.3625    0.0000 N   0  0  0  0  0  0  0  0  0  0  0  0
   -4.2868   -4.9500    0.0000 C   0  0  0  0  0  0  0  0  0  0  0  0
   -5.0013   -5.3625    0.0000 C   0  0  0  0  0  0  0  0  0  0  0  0
   -5.7158   -4.9500    0.0000 C   0  0  0  0  0  0  0  0  0  0  0  0
   -5.7158   -4.1250    0.0000 C   0  0  0  0  0  0  0  0  0  0  0  0
   -6.4302   -3.7125    0.0000 O   0  0  0  0  0  0  0  0  0  0  0  0
   -7.1447   -4.1250    0.0000 C   0  0  0  0  0  0  0  0  0  0  0  0
   -7.1447   -4.9500    0.0000 C   0  0  0  0  0  0  0  0  0  0  0  0
   -7.8592   -5.3625    0.0000 C   0  0  0  0  0  0  0  0  0  0  0  0
   -8.5737   -4.9500    0.0000 C   0  0  0  0  0  0  0  0  0  0  0  0
   -9.2881   -5.3625    0.0000 F   0  0  0  0  0  0  0  0  0  0  0  0
   -8.5737   -4.1250    0.0000 C   0  0  0  0  0  0  0  0  0  0  0  0
   -7.8592   -3.7125    0.0000 C   0  0  0  0  0  0  0  0  0  0  0  0
   -5.0013   -3.7125    0.0000 C   0  0  0  0  0  0  0  0  0  0  0  0
   -4.2868   -4.1250    0.0000 C   0  0  0  0  0  0  0  0  0  0  0  0
   -2.8579   -4.1250    0.0000 C   0  0  0  0  0  0  0  0  0  0  0  0
  1  2  1  0  0  0  0
  2  3  1  0  0  0  0
  3  4  1  0  0  0  0
  4  5  1  0  0  0  0
  3  6  1  0  0  0  0
  6  7  2  0  0  0  0
  6  8  1  0  0  0  0
  8  9  2  0  0  0  0
  9 10  1  0  0  0  0
 10 11  1  0  0  0  0
 11 12  1  0  0  0  0
 10 13  2  0  0  0  0
 13 14  1  0  0  0  0
 13 15  1  0  0  0  0
 15 16  1  0  0  0  0
 16 17  1  0  0  0  0
 17 18  2  0  0  0  0
 18 19  1  0  0  0  0
 19 20  2  0  0  0  0
 20 21  1  0  0  0  0
 21 22  1  0  0  0  0
 22 23  2  0  0  0  0
 23 24  1  0  0  0  0
 24 25  2  0  0  0  0
 25 26  1  0  0  0  0
 25 27  1  0  0  0  0
 27 28  2  0  0  0  0
 22 28  1  0  0  0  0
 20 29  1  0  0  0  0
 29 30  2  0  0  0  0
 17 30  1  0  0  0  0
 15 31  2  0  0  0  0
  8 31  1  0  0  0  0
M  END
> <ID>
CPD_2890

$$$$
CPD_2895
  Mrv1822 09091914012D          

 32 36  0  0  0  0            999 V2000
    7.0714    3.1729    0.0000 C   0  0  0  0  0  0  0  0  0  0  0  0
    6.3569    2.7604    0.0000 C   0  0  0  0  0  0  0  0  0  0  0  0
    6.3569    1.9354    0.0000 O   0  0  0  0  0  0  0  0  0  0  0  0
    5.6424    1.5229    0.0000 C   0  0  0  0  0  0  0  0  0  0  0  0
    5.6424    0.6979    0.0000 C   0  0  0  0  0  0  0  0  0  0  0  0
    4.9279    0.2854    0.0000 C   0  0  0  0  0  0  0  0  0  0  0  0
    4.2135    0.6979    0.0000 C   0  0  0  0  0  0  0  0  0  0  0  0
    4.2135    1.5229    0.0000 C   0  0  0  0  0  0  0  0  0  0  0  0
    4.9279    1.9354    0.0000 C   0  0  0  0  0  0  0  0  0  0  0  0
    3.4990    0.2854    0.0000 N   0  0  0  0  0  0  0  0  0  0  0  0
    3.4990   -0.5396    0.0000 C   0  0  0  0  0  0  0  0  0  0  0  0
    4.2135   -0.9521    0.0000 N   0  0  0  0  0  0  0  0  0  0  0  0
    4.2135   -1.7771    0.0000 C   0  0  0  0  0  0  0  0  0  0  0  0
    3.4990   -2.1896    0.0000 N   0  0  0  0  0  0  0  0  0  0  0  0
    2.7845   -1.7771    0.0000 N   0  0  0  0  0  0  0  0  0  0  0  0
    1.9999   -2.0320    0.0000 C   0  0  0  0  0  0  0  0  0  0  0  0
    1.5150   -1.3646    0.0000 C   0  0  0  0  0  0  0  0  0  0  0  0
    0.6900   -1.3646    0.0000 Br  0  0  0  0  0  0  0  0  0  0  0  0
    1.9999   -0.6971    0.0000 C   0  0  0  0  0  0  0  0  0  0  0  0
    2.7845   -0.9521    0.0000 C   0  0  0  0  0  0  0  0  0  0  0  0
    2.7845    0.6979    0.0000 S   0  0  0  0  0  0  0  0  0  0  0  0
    3.1970    1.4124    0.0000 O   0  0  0  0  0  0  0  0  0  0  0  0
    2.3720   -0.0165    0.0000 O   0  0  0  0  0  0  0  0  0  0  0  0
    2.0701    1.1104    0.0000 C   0  0  0  0  0  0  0  0  0  0  0  0
    1.3556    0.6979    0.0000 C   0  0  0  0  0  0  0  0  0  0  0  0
    0.6411    1.1104    0.0000 N   0  0  0  0  0  0  0  0  0  0  0  0
   -0.1435    0.8555    0.0000 C   0  0  0  0  0  0  0  0  0  0  0  0
   -0.6284    1.5229    0.0000 N   0  0  0  0  0  0  0  0  0  0  0  0
   -0.1435    2.1904    0.0000 N   0  0  0  0  0  0  0  0  0  0  0  0
    0.6411    1.9354    0.0000 C   0  0  0  0  0  0  0  0  0  0  0  0
    1.3556    2.3479    0.0000 C   0  0  0  0  0  0  0  0  0  0  0  0
    2.0701    1.9354    0.0000 C   0  0  0  0  0  0  0  0  0  0  0  0
  1  2  1  0  0  0  0
  2  3  1  0  0  0  0
  3  4  1  0  0  0  0
  4  5  2  0  0  0  0
  5  6  1  0  0  0  0
  6  7  2  0  0  0  0
  7  8  1  0  0  0  0
  8  9  2  0  0  0  0
  4  9  1  0  0  0  0
  7 10  1  0  0  0  0
 10 11  1  0  0  0  0
 11 12  2  0  0  0  0
 12 13  1  0  0  0  0
 13 14  2  0  0  0  0
 14 15  1  0  0  0  0
 15 16  1  0  0  0  0
 16 17  2  0  0  0  0
 17 18  1  0  0  0  0
 17 19  1  0  0  0  0
 19 20  2  0  0  0  0
 11 20  1  0  0  0  0
 15 20  1  0  0  0  0
 10 21  1  0  0  0  0
 21 22  2  0  0  0  0
 21 23  2  0  0  0  0
 21 24  1  0  0  0  0
 24 25  2  0  0  0  0
 25 26  1  0  0  0  0
 26 27  1  0  0  0  0
 27 28  2  0  0  0  0
 28 29  1  0  0  0  0
 29 30  2  0  0  0  0
 26 30  1  0  0  0  0
 30 31  1  0  0  0  0
 31 32  2  0  0  0  0
 24 32  1  0  0  0  0
M  END
> <ID>
CPD_2895

$$$$
CPD_2900
  Mrv1822 09091914012D          

 36 40  0  0  0  0            999 V2000
    7.0714    3.1729    0.0000 C   0  0  0  0  0  0  0  0  0  0  0  0
    6.3569    2.7604    0.0000 C   0  0  0  0  0  0  0  0  0  0  0  0
    6.3569    1.9354    0.0000 O   0  0  0  0  0  0  0  0  0  0  0  0
    5.6424    1.5229    0.0000 C   0  0  0  0  0  0  0  0  0  0  0  0
    5.6424    0.6979    0.0000 C   0  0  0  0  0  0  0  0  0  0  0  0
    4.9279    0.2854    0.0000 C   0  0  0  0  0  0  0  0  0  0  0  0
    4.2135    0.6979    0.0000 C   0  0  0  0  0  0  0  0  0  0  0  0
    4.2135    1.5229    0.0000 C   0  0  0  0  0  0  0  0  0  0  0  0
    4.9279    1.9354    0.0000 C   0  0  0  0  0  0  0  0  0  0  0  0
    3.4990    0.2854    0.0000 N   0  0  0  0  0  0  0  0  0  0  0  0
    3.4990   -0.5396    0.0000 C   0  0  0  0  0  0  0  0  0  0  0  0
    4.2135   -0.9521    0.0000 C   0  0  0  0  0  0  0  0  0  0  0  0
    4.2135   -1.7771    0.0000 C   0  0  0  0  0  0  0  0  0  0  0  0
    3.4990   -2.1896    0.0000 C   0  0  0  0  0  0  0  0  0  0  0  0
    3.6705   -2.9965    0.0000 N   0  0  0  0  0  0  0  0  0  0  0  0
    4.4910   -3.0828    0.0000 C   0  0  0  0  0  0  0  0  0  0  0  0
    4.9035   -3.7972    0.0000 C   0  0  0  0  0  0  0  0  0  0  0  0
    5.7285   -3.7972    0.0000 C   0  0  0  0  0  0  0  0  0  0  0  0
    6.1410   -4.5117    0.0000 C   0  0  0  0  0  0  0  0  0  0  0  0
    6.9660   -4.5117    0.0000 O   0  0  0  0  0  0  0  0  0  0  0  0
    5.7285   -5.2262    0.0000 O   0  0  0  0  0  0  0  0  0  0  0  0
    4.8266   -2.3291    0.0000 N   0  0  0  0  0  0  0  0  0  0  0  0
    2.7845   -1.7771    0.0000 C   0  0  0  0  0  0  0  0  0  0  0  0
    2.7845   -0.9521    0.0000 C   0  0  0  0  0  0  0  0  0  0  0  0
    2.7845    0.6979    0.0000 S   0  0  0  0  0  0  0  0  0  0  0  0
    2.3720   -0.0165    0.0000 O   0  0  0  0  0  0  0  0  0  0  0  0
    3.1970    1.4124    0.0000 O   0  0  0  0  0  0  0  0  0  0  0  0
    2.0701    1.1104    0.0000 C   0  0  0  0  0  0  0  0  0  0  0  0
    1.3556    0.6979    0.0000 C   0  0  0  0  0  0  0  0  0  0  0  0
    0.6411    1.1104    0.0000 N   0  0  0  0  0  0  0  0  0  0  0  0
   -0.1435    0.8555    0.0000 C   0  0  0  0  0  0  0  0  0  0  0  0
   -0.6284    1.5229    0.0000 N   0  0  0  0  0  0  0  0  0  0  0  0
   -0.1435    2.1904    0.0000 N   0  0  0  0  0  0  0  0  0  0  0  0
    0.6411    1.9354    0.0000 C   0  0  0  0  0  0  0  0  0  0  0  0
    1.3556    2.3479    0.0000 C   0  0  0  0  0  0  0  0  0  0  0  0
    2.0701    1.9354    0.0000 C   0  0  0  0  0  0  0  0  0  0  0  0
  1  2  1  0  0  0  0
  2  3  1  0  0  0  0
  3  4  1  0  0  0  0
  4  5  2  0  0  0  0
  5  6  1  0  0  0  0
  6  7  2  0  0  0  0
  7  8  1  0  0  0  0
  8  9  2  0  0  0  0
  4  9  1  0  0  0  0
  7 10  1  0  0  0  0
 10 11  1  0  0  0  0
 11 12  2  0  0  0  0
 12 13  1  0  0  0  0
 13 14  2  0  0  0  0
 14 15  1  0  0  0  0
 15 16  1  0  0  0  0
 16 17  1  0  0  0  0
 17 18  1  0  0  0  0
 18 19  1  0  0  0  0
 19 20  1  0  0  0  0
 19 21  2  0  0  0  0
 16 22  2  0  0  0  0
 13 22  1  0  0  0  0
 14 23  1  0  0  0  0
 23 24  2  0  0  0  0
 11 24  1  0  0  0  0
 10 25  1  0  0  0  0
 25 26  2  0  0  0  0
 25 27  2  0  0  0  0
 25 28  1  0  0  0  0
 28 29  2  0  0  0  0
 29 30  1  0  0  0  0
 30 31  1  0  0  0  0
 31 32  2  0  0  0  0
 32 33  1  0  0  0  0
 33 34  2  0  0  0  0
 30 34  1  0  0  0  0
 34 35  1  0  0  0  0
 35 36  2  0  0  0  0
 28 36  1  0  0  0  0
M  END
> <ID>
CPD_2900

$$$$
CPD_2905
  Mrv1822 09091914012D          

 38 42  0  0  0  0            999 V2000
    4.2135   -4.2521    0.0000 C   0  0  0  0  0  0  0  0  0  0  0  0
    4.2135   -3.4271    0.0000 C   0  0  0  0  0  0  0  0  0  0  0  0
    3.4990   -3.0146    0.0000 O   0  0  0  0  0  0  0  0  0  0  0  0
    3.4990   -2.1896    0.0000 C   0  0  0  0  0  0  0  0  0  0  0  0
    2.7845   -1.7771    0.0000 C   0  0  0  0  0  0  0  0  0  0  0  0
    2.7845   -0.9521    0.0000 C   0  0  0  0  0  0  0  0  0  0  0  0
    3.4990   -0.5396    0.0000 C   0  0  0  0  0  0  0  0  0  0  0  0
    4.2135   -0.9521    0.0000 C   0  0  0  0  0  0  0  0  0  0  0  0
    4.2135   -1.7771    0.0000 C   0  0  0  0  0  0  0  0  0  0  0  0
    3.4990    0.2854    0.0000 N   0  0  0  0  0  0  0  0  0  0  0  0
    4.2135    0.6979    0.0000 C   0  0  0  0  0  0  0  0  0  0  0  0
    4.2135    1.5229    0.0000 N   0  0  0  0  0  0  0  0  0  0  0  0
    4.9279    1.9354    0.0000 C   0  0  0  0  0  0  0  0  0  0  0  0
    5.6424    1.5229    0.0000 C   0  0  0  0  0  0  0  0  0  0  0  0
    5.6424    0.6979    0.0000 C   0  0  0  0  0  0  0  0  0  0  0  0
    4.9279    0.2854    0.0000 C   0  0  0  0  0  0  0  0  0  0  0  0
    6.3569    0.2854    0.0000 C   0  0  0  0  0  0  0  0  0  0  0  0
    6.3569   -0.5396    0.0000 O   0  0  0  0  0  0  0  0  0  0  0  0
    7.0714    0.6979    0.0000 N   0  0  0  0  0  0  0  0  0  0  0  0
    7.7858    0.2854    0.0000 C   0  0  0  0  0  0  0  0  0  0  0  0
    8.5003    0.6979    0.0000 C   0  0  0  0  0  0  0  0  0  0  0  0
    9.2148    0.2854    0.0000 C   0  0  0  0  0  0  0  0  0  0  0  0
    9.2148   -0.5396    0.0000 C   0  0  0  0  0  0  0  0  0  0  0  0
    9.9292   -0.9521    0.0000 F   0  0  0  0  0  0  0  0  0  0  0  0
    8.5003   -0.9521    0.0000 C   0  0  0  0  0  0  0  0  0  0  0  0
    7.7858   -0.5396    0.0000 C   0  0  0  0  0  0  0  0  0  0  0  0
    2.7845    0.6979    0.0000 S   0  0  0  0  0  0  0  0  0  0  0  0
    3.1970    1.4124    0.0000 O   0  0  0  0  0  0  0  0  0  0  0  0
    2.3720   -0.0165    0.0000 O   0  0  0  0  0  0  0  0  0  0  0  0
    2.0701    1.1104    0.0000 C   0  0  0  0  0  0  0  0  0  0  0  0
    1.3556    0.6979    0.0000 C   0  0  0  0  0  0  0  0  0  0  0  0
    0.6411    1.1104    0.0000 N   0  0  0  0  0  0  0  0  0  0  0  0
   -0.1435    0.8555    0.0000 C   0  0  0  0  0  0  0  0  0  0  0  0
   -0.6284    1.5229    0.0000 N   0  0  0  0  0  0  0  0  0  0  0  0
   -0.1435    2.1904    0.0000 N   0  0  0  0  0  0  0  0  0  0  0  0
    0.6411    1.9354    0.0000 C   0  0  0  0  0  0  0  0  0  0  0  0
    1.3556    2.3479    0.0000 C   0  0  0  0  0  0  0  0  0  0  0  0
    2.0701    1.9354    0.0000 C   0  0  0  0  0  0  0  0  0  0  0  0
  1  2  1  0  0  0  0
  2  3  1  0  0  0  0
  3  4  1  0  0  0  0
  4  5  2  0  0  0  0
  5  6  1  0  0  0  0
  6  7  2  0  0  0  0
  7  8  1  0  0  0  0
  8  9  2  0  0  0  0
  4  9  1  0  0  0  0
  7 10  1  0  0  0  0
 10 11  1  0  0  0  0
 11 12  2  0  0  0  0
 12 13  1  0  0  0  0
 13 14  2  0  0  0  0
 14 15  1  0  0  0  0
 15 16  2  0  0  0  0
 11 16  1  0  0  0  0
 15 17  1  0  0  0  0
 17 18  2  0  0  0  0
 17 19  1  0  0  0  0
 19 20  1  0  0  0  0
 20 21  2  0  0  0  0
 21 22  1  0  0  0  0
 22 23  2  0  0  0  0
 23 24  1  0  0  0  0
 23 25  1  0  0  0  0
 25 26  2  0  0  0  0
 20 26  1  0  0  0  0
 10 27  1  0  0  0  0
 27 28  2  0  0  0  0
 27 29  2  0  0  0  0
 27 30  1  0  0  0  0
 30 31  2  0  0  0  0
 31 32  1  0  0  0  0
 32 33  1  0  0  0  0
 33 34  2  0  0  0  0
 34 35  1  0  0  0  0
 35 36  2  0  0  0  0
 32 36  1  0  0  0  0
 36 37  1  0  0  0  0
 37 38  2  0  0  0  0
 30 38  1  0  0  0  0
M  END
> <ID>
CPD_2905

$$$$
CPD_2910
  Mrv1822 09091914012D          

 29 32  0  0  0  0            999 V2000
    0.0000    0.0000    0.0000 C   0  0  0  0  0  0  0  0  0  0  0  0
    0.7145   -0.4125    0.0000 N   0  0  0  0  0  0  0  0  0  0  0  0
    1.4289   -0.0000    0.0000 C   0  0  0  0  0  0  0  0  0  0  0  0
    1.4289    0.8250    0.0000 C   0  0  0  0  0  0  0  0  0  0  0  0
    0.7145    1.2375    0.0000 C   0  0  0  0  0  0  0  0  0  0  0  0
    0.7145    2.0625    0.0000 C   0  0  0  0  0  0  0  0  0  0  0  0
    1.4289    2.4750    0.0000 O   0  0  0  0  0  0  0  0  0  0  0  0
    2.1434    2.0625    0.0000 C   0  0  0  0  0  0  0  0  0  0  0  0
    2.1434    1.2375    0.0000 C   0  0  0  0  0  0  0  0  0  0  0  0
    0.7145   -1.2375    0.0000 C   0  0  0  0  0  0  0  0  0  0  0  0
    1.3819   -1.7224    0.0000 C   0  0  0  0  0  0  0  0  0  0  0  0
    1.1270   -2.5070    0.0000 C   0  0  0  0  0  0  0  0  0  0  0  0
    0.3020   -2.5070    0.0000 N   0  0  0  0  0  0  0  0  0  0  0  0
    0.0470   -1.7224    0.0000 C   0  0  0  0  0  0  0  0  0  0  0  0
   -0.1830   -3.1745    0.0000 C   0  0  0  0  0  0  0  0  0  0  0  0
    0.1526   -3.9282    0.0000 C   0  0  0  0  0  0  0  0  0  0  0  0
   -0.3323   -4.5956    0.0000 N   0  0  0  0  0  0  0  0  0  0  0  0
   -1.1528   -4.5094    0.0000 C   0  0  0  0  0  0  0  0  0  0  0  0
   -1.6377   -5.1768    0.0000 N   0  0  0  0  0  0  0  0  0  0  0  0
   -1.3022   -5.9305    0.0000 C   0  0  0  0  0  0  0  0  0  0  0  0
   -0.4952   -6.1020    0.0000 N   0  0  0  0  0  0  0  0  0  0  0  0
   -0.4090   -6.9225    0.0000 C   0  0  0  0  0  0  0  0  0  0  0  0
   -1.1626   -7.2580    0.0000 C   0  0  0  0  0  0  0  0  0  0  0  0
   -1.7147   -6.6449    0.0000 S   0  0  0  0  0  0  0  0  0  0  0  0
   -1.3342   -8.0650    0.0000 C   0  0  0  0  0  0  0  0  0  0  0  0
   -0.7211   -8.6170    0.0000 C   0  0  0  0  0  0  0  0  0  0  0  0
   -2.1188   -8.3200    0.0000 O   0  0  0  0  0  0  0  0  0  0  0  0
   -1.4884   -3.7557    0.0000 C   0  0  0  0  0  0  0  0  0  0  0  0
   -1.0034   -3.0882    0.0000 C   0  0  0  0  0  0  0  0  0  0  0  0
  1  2  1  0  0  0  0
  2  3  1  0  0  0  0
  3  4  1  0  0  0  0
  4  5  1  0  0  0  0
  5  6  1  0  0  0  0
  6  7  1  0  0  0  0
  7  8  1  0  0  0  0
  8  9  1  0  0  0  0
  4  9  1  0  0  0  0
  2 10  1  0  0  0  0
 10 11  1  0  0  0  0
 11 12  1  0  0  0  0
 12 13  1  0  0  0  0
 13 14  1  0  0  0  0
 10 14  1  0  0  0  0
 13 15  1  0  0  0  0
 15 16  2  0  0  0  0
 16 17  1  0  0  0  0
 17 18  2  0  0  0  0
 18 19  1  0  0  0  0
 19 20  1  0  0  0  0
 20 21  2  0  0  0  0
 21 22  1  0  0  0  0
 22 23  2  0  0  0  0
 23 24  1  0  0  0  0
 20 24  1  0  0  0  0
 23 25  1  0  0  0  0
 25 26  1  0  0  0  0
 25 27  2  0  0  0  0
 18 28  1  0  0  0  0
 28 29  2  0  0  0  0
 15 29  1  0  0  0  0
M  END
> <ID>
CPD_2910

$$$$
CPD_2915
  Mrv1822 09091914012D          

 24 27  0  0  0  0            999 V2000
   -2.4617   -0.5624    0.0000 C   0  0  0  0  0  0  0  0  0  0  0  0
   -2.1262    0.1913    0.0000 N   0  0  0  0  0  0  0  0  0  0  0  0
   -2.6111    0.8587    0.0000 C   0  0  0  0  0  0  0  0  0  0  0  0
   -3.4316    0.7725    0.0000 C   0  0  0  0  0  0  0  0  0  0  0  0
   -3.7671    0.0188    0.0000 C   0  0  0  0  0  0  0  0  0  0  0  0
   -4.5876   -0.0674    0.0000 C   0  0  0  0  0  0  0  0  0  0  0  0
   -5.0726    0.6000    0.0000 O   0  0  0  0  0  0  0  0  0  0  0  0
   -4.7370    1.3537    0.0000 C   0  0  0  0  0  0  0  0  0  0  0  0
   -3.9165    1.4399    0.0000 C   0  0  0  0  0  0  0  0  0  0  0  0
   -1.3057    0.2775    0.0000 C   0  0  0  0  0  0  0  0  0  0  0  0
   -0.8932    0.9920    0.0000 C   0  0  0  0  0  0  0  0  0  0  0  0
   -0.0862    0.8205    0.0000 C   0  0  0  0  0  0  0  0  0  0  0  0
    0.0000    0.0000    0.0000 N   0  0  0  0  0  0  0  0  0  0  0  0
   -0.7537   -0.3356    0.0000 C   0  0  0  0  0  0  0  0  0  0  0  0
    0.7145   -0.4125    0.0000 C   0  0  0  0  0  0  0  0  0  0  0  0
    1.4289    0.0000    0.0000 C   0  0  0  0  0  0  0  0  0  0  0  0
    2.1434   -0.4125    0.0000 C   0  0  0  0  0  0  0  0  0  0  0  0
    2.8579    0.0000    0.0000 C   0  0  0  0  0  0  0  0  0  0  0  0
    3.5724   -0.4125    0.0000 C   0  0  0  0  0  0  0  0  0  0  0  0
    3.5724   -1.2375    0.0000 C   0  0  0  0  0  0  0  0  0  0  0  0
    2.8579   -1.6500    0.0000 N   0  0  0  0  0  0  0  0  0  0  0  0
    2.1434   -1.2375    0.0000 C   0  0  0  0  0  0  0  0  0  0  0  0
    1.4289   -1.6500    0.0000 C   0  0  0  0  0  0  0  0  0  0  0  0
    0.7145   -1.2375    0.0000 C   0  0  0  0  0  0  0  0  0  0  0  0
  1  2  1  0  0  0  0
  2  3  1  0  0  0  0
  3  4  1  0  0  0  0
  4  5  1  0  0  0  0
  5  6  1  0  0  0  0
  6  7  1  0  0  0  0
  7  8  1  0  0  0  0
  8  9  1  0  0  0  0
  4  9  1  0  0  0  0
  2 10  1  0  0  0  0
 10 11  1  0  0  0  0
 11 12  1  0  0  0  0
 12 13  1  0  0  0  0
 13 14  1  0  0  0  0
 10 14  1  0  0  0  0
 13 15  1  0  0  0  0
 15 16  2  0  0  0  0
 16 17  1  0  0  0  0
 17 18  2  0  0  0  0
 18 19  1  0  0  0  0
 19 20  2  0  0  0  0
 20 21  1  0  0  0  0
 21 22  2  0  0  0  0
 17 22  1  0  0  0  0
 22 23  1  0  0  0  0
 23 24  2  0  0  0  0
 15 24  1  0  0  0  0
M  END
> <ID>
CPD_2915

$$$$
CPD_2920
  Mrv1822 09091914012D          

 37 41  0  0  0  0            999 V2000
    0.0000   -2.4750    0.0000 C   0  0  0  0  0  0  0  0  0  0  0  0
    0.0000   -1.6500    0.0000 O   0  0  0  0  0  0  0  0  0  0  0  0
    0.7145   -1.2375    0.0000 C   0  0  0  0  0  0  0  0  0  0  0  0
    0.7145   -0.4125    0.0000 C   0  0  0  0  0  0  0  0  0  0  0  0
    1.4289    0.0000    0.0000 C   0  0  0  0  0  0  0  0  0  0  0  0
    2.1434   -0.4125    0.0000 C   0  0  0  0  0  0  0  0  0  0  0  0
    2.8579    0.0000    0.0000 N   0  0  0  0  0  0  0  0  0  0  0  0
    3.5724   -0.4125    0.0000 C   0  0  0  0  0  0  0  0  0  0  0  0
    3.5724   -1.2375    0.0000 C   0  0  0  0  0  0  0  0  0  0  0  0
    2.8579   -1.6500    0.0000 C   0  0  0  0  0  0  0  0  0  0  0  0
    2.8579   -2.4750    0.0000 N   0  0  0  0  0  0  0  0  0  0  0  0
    3.5253   -2.9599    0.0000 C   0  0  0  0  0  0  0  0  0  0  0  0
    3.2704   -3.7445    0.0000 C   0  0  0  0  0  0  0  0  0  0  0  0
    2.4454   -3.7445    0.0000 C   0  0  0  0  0  0  0  0  0  0  0  0
    2.1904   -2.9599    0.0000 C   0  0  0  0  0  0  0  0  0  0  0  0
    1.9605   -4.4120    0.0000 N   0  0  0  0  0  0  0  0  0  0  0  0
    1.1400   -4.3257    0.0000 C   0  0  0  0  0  0  0  0  0  0  0  0
    2.2960   -5.1657    0.0000 C   0  0  0  0  0  0  0  0  0  0  0  0
    1.8111   -5.8331    0.0000 C   0  0  0  0  0  0  0  0  0  0  0  0
    2.1467   -6.5868    0.0000 C   0  0  0  0  0  0  0  0  0  0  0  0
    1.6617   -7.2542    0.0000 C   0  0  0  0  0  0  0  0  0  0  0  0
    0.8413   -7.1680    0.0000 O   0  0  0  0  0  0  0  0  0  0  0  0
    0.5057   -6.4143    0.0000 C   0  0  0  0  0  0  0  0  0  0  0  0
    0.9906   -5.7469    0.0000 C   0  0  0  0  0  0  0  0  0  0  0  0
    2.1434   -1.2375    0.0000 C   0  0  0  0  0  0  0  0  0  0  0  0
    1.4289   -1.6500    0.0000 C   0  0  0  0  0  0  0  0  0  0  0  0
    4.2868   -1.6500    0.0000 S   0  0  0  0  0  0  0  0  0  0  0  0
    3.8743   -2.3645    0.0000 O   0  0  0  0  0  0  0  0  0  0  0  0
    4.6993   -0.9355    0.0000 O   0  0  0  0  0  0  0  0  0  0  0  0
    5.0013   -2.0625    0.0000 C   0  0  0  0  0  0  0  0  0  0  0  0
    5.7158   -1.6500    0.0000 C   0  0  0  0  0  0  0  0  0  0  0  0
    6.4302   -2.0625    0.0000 C   0  0  0  0  0  0  0  0  0  0  0  0
    6.4302   -2.8875    0.0000 C   0  0  0  0  0  0  0  0  0  0  0  0
    5.7158   -3.3000    0.0000 C   0  0  0  0  0  0  0  0  0  0  0  0
    5.0013   -2.8875    0.0000 C   0  0  0  0  0  0  0  0  0  0  0  0
    7.1447   -1.6500    0.0000 C   0  0  0  0  0  0  0  0  0  0  0  0
    7.8592   -1.2375    0.0000 N   0  0  0  0  0  0  0  0  0  0  0  0
  1  2  1  0  0  0  0
  2  3  1  0  0  0  0
  3  4  2  0  0  0  0
  4  5  1  0  0  0  0
  5  6  2  0  0  0  0
  6  7  1  0  0  0  0
  7  8  2  0  0  0  0
  8  9  1  0  0  0  0
  9 10  2  0  0  0  0
 10 11  1  0  0  0  0
 11 12  1  0  0  0  0
 12 13  1  0  0  0  0
 13 14  1  0  0  0  0
 14 15  1  0  0  0  0
 11 15  1  0  0  0  0
 14 16  1  0  0  0  0
 16 17  1  0  0  0  0
 16 18  1  0  0  0  0
 18 19  1  0  0  0  0
 19 20  1  0  0  0  0
 20 21  1  0  0  0  0
 21 22  1  0  0  0  0
 22 23  1  0  0  0  0
 23 24  1  0  0  0  0
 19 24  1  0  0  0  0
 10 25  1  0  0  0  0
  6 25  1  0  0  0  0
 25 26  2  0  0  0  0
  3 26  1  0  0  0  0
  9 27  1  0  0  0  0
 27 28  2  0  0  0  0
 27 29  2  0  0  0  0
 27 30  1  0  0  0  0
 30 31  2  0  0  0  0
 31 32  1  0  0  0  0
 32 33  2  0  0  0  0
 33 34  1  0  0  0  0
 34 35  2  0  0  0  0
 30 35  1  0  0  0  0
 32 36  1  0  0  0  0
 36 37  3  0  0  0  0
M  END
> <ID>
CPD_2920

$$$$
CPD_2925
  Mrv1822 09091914012D          

 25 27  0  0  0  0            999 V2000
    0.0000    0.0000    0.0000 C   0  0  0  0  0  0  0  0  0  0  0  0
    0.7145   -0.4125    0.0000 N   0  0  0  0  0  0  0  0  0  0  0  0
    1.4289   -0.0000    0.0000 C   0  0  0  0  0  0  0  0  0  0  0  0
    1.4289    0.8250    0.0000 C   0  0  0  0  0  0  0  0  0  0  0  0
    0.7145    1.2375    0.0000 C   0  0  0  0  0  0  0  0  0  0  0  0
    0.7145    2.0625    0.0000 C   0  0  0  0  0  0  0  0  0  0  0  0
    1.4289    2.4750    0.0000 O   0  0  0  0  0  0  0  0  0  0  0  0
    2.1434    2.0625    0.0000 C   0  0  0  0  0  0  0  0  0  0  0  0
    2.1434    1.2375    0.0000 C   0  0  0  0  0  0  0  0  0  0  0  0
    0.7145   -1.2375    0.0000 C   0  0  0  0  0  0  0  0  0  0  0  0
    1.3819   -1.7224    0.0000 C   0  0  0  0  0  0  0  0  0  0  0  0
    1.1270   -2.5070    0.0000 C   0  0  0  0  0  0  0  0  0  0  0  0
    0.3020   -2.5070    0.0000 N   0  0  0  0  0  0  0  0  0  0  0  0
    0.0470   -1.7224    0.0000 C   0  0  0  0  0  0  0  0  0  0  0  0
   -0.1830   -3.1745    0.0000 C   0  0  0  0  0  0  0  0  0  0  0  0
    0.1526   -3.9282    0.0000 C   0  0  0  0  0  0  0  0  0  0  0  0
   -0.3323   -4.5956    0.0000 C   0  0  0  0  0  0  0  0  0  0  0  0
   -1.1528   -4.5094    0.0000 C   0  0  0  0  0  0  0  0  0  0  0  0
   -1.6377   -5.1768    0.0000 C   0  0  0  0  0  0  0  0  0  0  0  0
   -1.4884   -3.7557    0.0000 C   0  0  0  0  0  0  0  0  0  0  0  0
   -2.3088   -3.6695    0.0000 Br  0  0  0  0  0  0  0  0  0  0  0  0
   -1.0034   -3.0882    0.0000 C   0  0  0  0  0  0  0  0  0  0  0  0
   -1.3390   -2.3346    0.0000 C   0  0  0  0  0  0  0  0  0  0  0  0
   -0.8541   -1.6671    0.0000 O   0  0  0  0  0  0  0  0  0  0  0  0
   -2.1595   -2.2483    0.0000 O   0  0  0  0  0  0  0  0  0  0  0  0
  1  2  1  0  0  0  0
  2  3  1  0  0  0  0
  3  4  1  0  0  0  0
  4  5  1  0  0  0  0
  5  6  1  0  0  0  0
  6  7  1  0  0  0  0
  7  8  1  0  0  0  0
  8  9  1  0  0  0  0
  4  9  1  0  0  0  0
  2 10  1  0  0  0  0
 10 11  1  0  0  0  0
 11 12  1  0  0  0  0
 12 13  1  0  0  0  0
 13 14  1  0  0  0  0
 10 14  1  0  0  0  0
 13 15  1  0  0  0  0
 15 16  2  0  0  0  0
 16 17  1  0  0  0  0
 17 18  2  0  0  0  0
 18 19  1  0  0  0  0
 18 20  1  0  0  0  0
 20 21  1  0  0  0  0
 20 22  2  0  0  0  0
 15 22  1  0  0  0  0
 22 23  1  0  0  0  0
 23 24  1  0  0  0  0
 23 25  2  0  0  0  0
M  END
> <ID>
CPD_2925

$$$$
CPD_2930
  Mrv1822 09091914012D          

 33 37  0  0  0  0            999 V2000
    6.3569    2.7604    0.0000 C   0  0  0  0  0  0  0  0  0  0  0  0
    6.3569    1.9354    0.0000 C   0  0  0  0  0  0  0  0  0  0  0  0
    5.6424    1.5229    0.0000 C   0  0  0  0  0  0  0  0  0  0  0  0
    5.6424    0.6979    0.0000 C   0  0  0  0  0  0  0  0  0  0  0  0
    4.9279    0.2854    0.0000 C   0  0  0  0  0  0  0  0  0  0  0  0
    4.2135    0.6979    0.0000 C   0  0  0  0  0  0  0  0  0  0  0  0
    4.2135    1.5229    0.0000 C   0  0  0  0  0  0  0  0  0  0  0  0
    4.9279    1.9354    0.0000 C   0  0  0  0  0  0  0  0  0  0  0  0
    3.4990    0.2854    0.0000 N   0  0  0  0  0  0  0  0  0  0  0  0
    3.4990   -0.5396    0.0000 C   0  0  0  0  0  0  0  0  0  0  0  0
    4.1664   -1.0245    0.0000 N   0  0  0  0  0  0  0  0  0  0  0  0
    3.9115   -1.8091    0.0000 N   0  0  0  0  0  0  0  0  0  0  0  0
    4.3964   -2.4765    0.0000 C   0  0  0  0  0  0  0  0  0  0  0  0
    3.0865   -1.8091    0.0000 C   0  0  0  0  0  0  0  0  0  0  0  0
    2.5345   -2.4222    0.0000 C   0  0  0  0  0  0  0  0  0  0  0  0
    2.7894   -3.2068    0.0000 N   0  0  0  0  0  0  0  0  0  0  0  0
    1.7275   -2.2507    0.0000 C   0  0  0  0  0  0  0  0  0  0  0  0
    1.4726   -1.4660    0.0000 C   0  0  0  0  0  0  0  0  0  0  0  0
    2.0246   -0.8530    0.0000 C   0  0  0  0  0  0  0  0  0  0  0  0
    2.8316   -1.0245    0.0000 C   0  0  0  0  0  0  0  0  0  0  0  0
    2.7845    0.6979    0.0000 S   0  0  0  0  0  0  0  0  0  0  0  0
    3.1970    1.4124    0.0000 O   0  0  0  0  0  0  0  0  0  0  0  0
    2.3720   -0.0165    0.0000 O   0  0  0  0  0  0  0  0  0  0  0  0
    2.0701    1.1104    0.0000 C   0  0  0  0  0  0  0  0  0  0  0  0
    1.3556    0.6979    0.0000 C   0  0  0  0  0  0  0  0  0  0  0  0
    0.6411    1.1104    0.0000 N   0  0  0  0  0  0  0  0  0  0  0  0
   -0.1435    0.8555    0.0000 C   0  0  0  0  0  0  0  0  0  0  0  0
   -0.3984    0.0709    0.0000 C   0  0  0  0  0  0  0  0  0  0  0  0
   -0.6284    1.5229    0.0000 N   0  0  0  0  0  0  0  0  0  0  0  0
   -0.1435    2.1904    0.0000 N   0  0  0  0  0  0  0  0  0  0  0  0
    0.6411    1.9354    0.0000 C   0  0  0  0  0  0  0  0  0  0  0  0
    1.3556    2.3479    0.0000 C   0  0  0  0  0  0  0  0  0  0  0  0
    2.0701    1.9354    0.0000 C   0  0  0  0  0  0  0  0  0  0  0  0
  1  2  1  0  0  0  0
  2  3  1  0  0  0  0
  3  4  2  0  0  0  0
  4  5  1  0  0  0  0
  5  6  2  0  0  0  0
  6  7  1  0  0  0  0
  7  8  2  0  0  0  0
  3  8  1  0  0  0  0
  6  9  1  0  0  0  0
  9 10  1  0  0  0  0
 10 11  2  0  0  0  0
 11 12  1  0  0  0  0
 12 13  1  0  0  0  0
 12 14  1  0  0  0  0
 14 15  2  0  0  0  0
 15 16  1  0  0  0  0
 15 17  1  0  0  0  0
 17 18  2  0  0  0  0
 18 19  1  0  0  0  0
 19 20  2  0  0  0  0
 10 20  1  0  0  0  0
 14 20  1  0  0  0  0
  9 21  1  0  0  0  0
 21 22  2  0  0  0  0
 21 23  2  0  0  0  0
 21 24  1  0  0  0  0
 24 25  2  0  0  0  0
 25 26  1  0  0  0  0
 26 27  1  0  0  0  0
 27 28  1  0  0  0  0
 27 29  2  0  0  0  0
 29 30  1  0  0  0  0
 30 31  2  0  0  0  0
 26 31  1  0  0  0  0
 31 32  1  0  0  0  0
 32 33  2  0  0  0  0
 24 33  1  0  0  0  0
M  END
> <ID>
CPD_2930

$$$$
CPD_2935
  Mrv1822 09091914012D          

 33 36  0  0  0  0            999 V2000
    6.3569    2.7604    0.0000 C   0  0  0  0  0  0  0  0  0  0  0  0
    6.3569    1.9354    0.0000 C   0  0  0  0  0  0  0  0  0  0  0  0
    5.6424    1.5229    0.0000 C   0  0  0  0  0  0  0  0  0  0  0  0
    5.6424    0.6979    0.0000 C   0  0  0  0  0  0  0  0  0  0  0  0
    4.9279    0.2854    0.0000 C   0  0  0  0  0  0  0  0  0  0  0  0
    4.2135    0.6979    0.0000 C   0  0  0  0  0  0  0  0  0  0  0  0
    4.2135    1.5229    0.0000 C   0  0  0  0  0  0  0  0  0  0  0  0
    4.9279    1.9354    0.0000 C   0  0  0  0  0  0  0  0  0  0  0  0
    3.4990    0.2854    0.0000 N   0  0  0  0  0  0  0  0  0  0  0  0
    3.4990   -0.5396    0.0000 C   0  0  0  0  0  0  0  0  0  0  0  0
    4.2135   -0.9521    0.0000 C   0  0  0  0  0  0  0  0  0  0  0  0
    4.2135   -1.7771    0.0000 C   0  0  0  0  0  0  0  0  0  0  0  0
    4.9279   -2.1896    0.0000 O   0  0  0  0  0  0  0  0  0  0  0  0
    4.9279   -3.0146    0.0000 C   0  0  0  0  0  0  0  0  0  0  0  0
    3.4990   -2.1896    0.0000 C   0  0  0  0  0  0  0  0  0  0  0  0
    2.7845   -1.7771    0.0000 C   0  0  0  0  0  0  0  0  0  0  0  0
    2.7845   -0.9521    0.0000 C   0  0  0  0  0  0  0  0  0  0  0  0
    3.4990   -3.0146    0.0000 C   0  0  0  0  0  0  0  0  0  0  0  0
    4.2135   -3.4271    0.0000 O   0  0  0  0  0  0  0  0  0  0  0  0
    2.7845   -3.4271    0.0000 O   0  0  0  0  0  0  0  0  0  0  0  0
    2.7845    0.6979    0.0000 S   0  0  0  0  0  0  0  0  0  0  0  0
    2.3720   -0.0165    0.0000 O   0  0  0  0  0  0  0  0  0  0  0  0
    3.1970    1.4124    0.0000 O   0  0  0  0  0  0  0  0  0  0  0  0
    2.0701    1.1104    0.0000 C   0  0  0  0  0  0  0  0  0  0  0  0
    1.3556    0.6979    0.0000 C   0  0  0  0  0  0  0  0  0  0  0  0
    0.6411    1.1104    0.0000 N   0  0  0  0  0  0  0  0  0  0  0  0
   -0.1435    0.8555    0.0000 C   0  0  0  0  0  0  0  0  0  0  0  0
   -0.3984    0.0709    0.0000 C   0  0  0  0  0  0  0  0  0  0  0  0
   -0.6284    1.5229    0.0000 N   0  0  0  0  0  0  0  0  0  0  0  0
   -0.1435    2.1904    0.0000 N   0  0  0  0  0  0  0  0  0  0  0  0
    0.6411    1.9354    0.0000 C   0  0  0  0  0  0  0  0  0  0  0  0
    1.3556    2.3479    0.0000 C   0  0  0  0  0  0  0  0  0  0  0  0
    2.0701    1.9354    0.0000 C   0  0  0  0  0  0  0  0  0  0  0  0
  1  2  1  0  0  0  0
  2  3  1  0  0  0  0
  3  4  2  0  0  0  0
  4  5  1  0  0  0  0
  5  6  2  0  0  0  0
  6  7  1  0  0  0  0
  7  8  2  0  0  0  0
  3  8  1  0  0  0  0
  6  9  1  0  0  0  0
  9 10  1  0  0  0  0
 10 11  2  0  0  0  0
 11 12  1  0  0  0  0
 12 13  1  0  0  0  0
 13 14  1  0  0  0  0
 12 15  2  0  0  0  0
 15 16  1  0  0  0  0
 16 17  2  0  0  0  0
 10 17  1  0  0  0  0
 15 18  1  0  0  0  0
 18 19  1  0  0  0  0
 18 20  2  0  0  0  0
  9 21  1  0  0  0  0
 21 22  2  0  0  0  0
 21 23  2  0  0  0  0
 21 24  1  0  0  0  0
 24 25  2  0  0  0  0
 25 26  1  0  0  0  0
 26 27  1  0  0  0  0
 27 28  1  0  0  0  0
 27 29  2  0  0  0  0
 29 30  1  0  0  0  0
 30 31  2  0  0  0  0
 26 31  1  0  0  0  0
 31 32  1  0  0  0  0
 32 33  2  0  0  0  0
 24 33  1  0  0  0  0
M  END
> <ID>
CPD_2935

$$$$
CPD_2940
  Mrv1822 09091914012D          

 33 37  0  0  0  0            999 V2000
    6.9246   -3.9979    0.0000 C   0  0  0  0  0  0  0  0  0  0  0  0
    6.9246   -4.8229    0.0000 C   0  0  0  0  0  0  0  0  0  0  0  0
    6.2102   -5.2354    0.0000 C   0  0  0  0  0  0  0  0  0  0  0  0
    6.2102   -6.0604    0.0000 C   0  0  0  0  0  0  0  0  0  0  0  0
    5.4957   -6.4729    0.0000 C   0  0  0  0  0  0  0  0  0  0  0  0
    4.7812   -6.0604    0.0000 C   0  0  0  0  0  0  0  0  0  0  0  0
    4.7812   -5.2354    0.0000 C   0  0  0  0  0  0  0  0  0  0  0  0
    5.4957   -4.8229    0.0000 C   0  0  0  0  0  0  0  0  0  0  0  0
    4.0668   -6.4729    0.0000 N   0  0  0  0  0  0  0  0  0  0  0  0
    4.0668   -7.2979    0.0000 C   0  0  0  0  0  0  0  0  0  0  0  0
    4.7812   -7.7104    0.0000 C   0  0  0  0  0  0  0  0  0  0  0  0
    5.4957   -7.2979    0.0000 N   0  0  0  0  0  0  0  0  0  0  0  0
    6.2102   -7.7104    0.0000 C   0  0  0  0  0  0  0  0  0  0  0  0
    6.9246   -7.2979    0.0000 O   0  0  0  0  0  0  0  0  0  0  0  0
    6.2102   -8.5354    0.0000 C   0  0  0  0  0  0  0  0  0  0  0  0
    5.4957   -8.9479    0.0000 C   0  0  0  0  0  0  0  0  0  0  0  0
    4.7812   -8.5354    0.0000 C   0  0  0  0  0  0  0  0  0  0  0  0
    4.0668   -8.9479    0.0000 C   0  0  0  0  0  0  0  0  0  0  0  0
    3.3523   -8.5354    0.0000 C   0  0  0  0  0  0  0  0  0  0  0  0
    3.3523   -7.7104    0.0000 C   0  0  0  0  0  0  0  0  0  0  0  0
    3.3523   -6.0604    0.0000 S   0  0  0  0  0  0  0  0  0  0  0  0
    3.7648   -5.3460    0.0000 O   0  0  0  0  0  0  0  0  0  0  0  0
    2.9398   -6.7749    0.0000 O   0  0  0  0  0  0  0  0  0  0  0  0
    2.6378   -5.6479    0.0000 C   0  0  0  0  0  0  0  0  0  0  0  0
    1.9233   -6.0604    0.0000 C   0  0  0  0  0  0  0  0  0  0  0  0
    1.2089   -5.6479    0.0000 N   0  0  0  0  0  0  0  0  0  0  0  0
    0.4243   -5.9029    0.0000 C   0  0  0  0  0  0  0  0  0  0  0  0
    0.1693   -6.6875    0.0000 C   0  0  0  0  0  0  0  0  0  0  0  0
   -0.0607   -5.2354    0.0000 N   0  0  0  0  0  0  0  0  0  0  0  0
    0.4243   -4.5680    0.0000 N   0  0  0  0  0  0  0  0  0  0  0  0
    1.2089   -4.8229    0.0000 C   0  0  0  0  0  0  0  0  0  0  0  0
    1.9233   -4.4104    0.0000 C   0  0  0  0  0  0  0  0  0  0  0  0
    2.6378   -4.8229    0.0000 C   0  0  0  0  0  0  0  0  0  0  0  0
  1  2  1  0  0  0  0
  2  3  1  0  0  0  0
  3  4  2  0  0  0  0
  4  5  1  0  0  0  0
  5  6  2  0  0  0  0
  6  7  1  0  0  0  0
  7  8  2  0  0  0  0
  3  8  1  0  0  0  0
  6  9  1  0  0  0  0
  9 10  1  0  0  0  0
 10 11  2  0  0  0  0
 11 12  1  0  0  0  0
 12 13  1  0  0  0  0
 13 14  2  0  0  0  0
 13 15  1  0  0  0  0
 15 16  2  0  0  0  0
 16 17  1  0  0  0  0
 11 17  1  0  0  0  0
 17 18  2  0  0  0  0
 18 19  1  0  0  0  0
 19 20  2  0  0  0  0
 10 20  1  0  0  0  0
  9 21  1  0  0  0  0
 21 22  2  0  0  0  0
 21 23  2  0  0  0  0
 21 24  1  0  0  0  0
 24 25  2  0  0  0  0
 25 26  1  0  0  0  0
 26 27  1  0  0  0  0
 27 28  1  0  0  0  0
 27 29  2  0  0  0  0
 29 30  1  0  0  0  0
 30 31  2  0  0  0  0
 26 31  1  0  0  0  0
 31 32  1  0  0  0  0
 32 33  2  0  0  0  0
 24 33  1  0  0  0  0
M  END
> <ID>
CPD_2940

$$$$
CPD_2945
  Mrv1822 09091914012D          

 37 41  0  0  0  0            999 V2000
    6.3569    2.7604    0.0000 C   0  0  0  0  0  0  0  0  0  0  0  0
    6.3569    1.9354    0.0000 C   0  0  0  0  0  0  0  0  0  0  0  0
    5.6424    1.5229    0.0000 C   0  0  0  0  0  0  0  0  0  0  0  0
    5.6424    0.6979    0.0000 C   0  0  0  0  0  0  0  0  0  0  0  0
    4.9279    0.2854    0.0000 C   0  0  0  0  0  0  0  0  0  0  0  0
    4.2135    0.6979    0.0000 C   0  0  0  0  0  0  0  0  0  0  0  0
    4.2135    1.5229    0.0000 C   0  0  0  0  0  0  0  0  0  0  0  0
    4.9279    1.9354    0.0000 C   0  0  0  0  0  0  0  0  0  0  0  0
    3.4990    0.2854    0.0000 N   0  0  0  0  0  0  0  0  0  0  0  0
    3.4990   -0.5396    0.0000 C   0  0  0  0  0  0  0  0  0  0  0  0
    4.2135   -0.9521    0.0000 C   0  0  0  0  0  0  0  0  0  0  0  0
    4.2135   -1.7771    0.0000 C   0  0  0  0  0  0  0  0  0  0  0  0
    3.4990   -2.1896    0.0000 C   0  0  0  0  0  0  0  0  0  0  0  0
    2.7845   -1.7771    0.0000 C   0  0  0  0  0  0  0  0  0  0  0  0
    2.7845   -0.9521    0.0000 C   0  0  0  0  0  0  0  0  0  0  0  0
    3.4990   -3.0146    0.0000 C   0  0  0  0  0  0  0  0  0  0  0  0
    4.2135   -3.4271    0.0000 O   0  0  0  0  0  0  0  0  0  0  0  0
    2.7845   -3.4271    0.0000 C   0  0  0  0  0  0  0  0  0  0  0  0
    2.7845   -4.2521    0.0000 C   0  0  0  0  0  0  0  0  0  0  0  0
    2.0701   -4.6646    0.0000 C   0  0  0  0  0  0  0  0  0  0  0  0
    1.3556   -4.2521    0.0000 C   0  0  0  0  0  0  0  0  0  0  0  0
    1.3556   -3.4271    0.0000 C   0  0  0  0  0  0  0  0  0  0  0  0
    0.6411   -3.0146    0.0000 F   0  0  0  0  0  0  0  0  0  0  0  0
    2.0701   -3.0146    0.0000 C   0  0  0  0  0  0  0  0  0  0  0  0
    2.7845    0.6979    0.0000 S   0  0  0  0  0  0  0  0  0  0  0  0
    2.3720   -0.0165    0.0000 O   0  0  0  0  0  0  0  0  0  0  0  0
    3.1970    1.4124    0.0000 O   0  0  0  0  0  0  0  0  0  0  0  0
    2.0701    1.1104    0.0000 C   0  0  0  0  0  0  0  0  0  0  0  0
    1.3556    0.6979    0.0000 C   0  0  0  0  0  0  0  0  0  0  0  0
    0.6411    1.1104    0.0000 N   0  0  0  0  0  0  0  0  0  0  0  0
   -0.1435    0.8555    0.0000 C   0  0  0  0  0  0  0  0  0  0  0  0
   -0.3984    0.0709    0.0000 C   0  0  0  0  0  0  0  0  0  0  0  0
   -0.6284    1.5229    0.0000 N   0  0  0  0  0  0  0  0  0  0  0  0
   -0.1435    2.1904    0.0000 N   0  0  0  0  0  0  0  0  0  0  0  0
    0.6411    1.9354    0.0000 C   0  0  0  0  0  0  0  0  0  0  0  0
    1.3556    2.3479    0.0000 C   0  0  0  0  0  0  0  0  0  0  0  0
    2.0701    1.9354    0.0000 C   0  0  0  0  0  0  0  0  0  0  0  0
  1  2  1  0  0  0  0
  2  3  1  0  0  0  0
  3  4  2  0  0  0  0
  4  5  1  0  0  0  0
  5  6  2  0  0  0  0
  6  7  1  0  0  0  0
  7  8  2  0  0  0  0
  3  8  1  0  0  0  0
  6  9  1  0  0  0  0
  9 10  1  0  0  0  0
 10 11  2  0  0  0  0
 11 12  1  0  0  0  0
 12 13  2  0  0  0  0
 13 14  1  0  0  0  0
 14 15  2  0  0  0  0
 10 15  1  0  0  0  0
 13 16  1  0  0  0  0
 16 17  2  0  0  0  0
 16 18  1  0  0  0  0
 18 19  2  0  0  0  0
 19 20  1  0  0  0  0
 20 21  2  0  0  0  0
 21 22  1  0  0  0  0
 22 23  1  0  0  0  0
 22 24  2  0  0  0  0
 18 24  1  0  0  0  0
  9 25  1  0  0  0  0
 25 26  2  0  0  0  0
 25 27  2  0  0  0  0
 25 28  1  0  0  0  0
 28 29  2  0  0  0  0
 29 30  1  0  0  0  0
 30 31  1  0  0  0  0
 31 32  1  0  0  0  0
 31 33  2  0  0  0  0
 33 34  1  0  0  0  0
 34 35  2  0  0  0  0
 30 35  1  0  0  0  0
 35 36  1  0  0  0  0
 36 37  2  0  0  0  0
 28 37  1  0  0  0  0
M  END
> <ID>
CPD_2945

$$$$
CPD_2950
  Mrv1822 09091914012D          

 32 35  0  0  0  0            999 V2000
    6.3569    2.7604    0.0000 C   0  0  0  0  0  0  0  0  0  0  0  0
    6.3569    1.9354    0.0000 C   0  0  0  0  0  0  0  0  0  0  0  0
    5.6424    1.5229    0.0000 C   0  0  0  0  0  0  0  0  0  0  0  0
    5.6424    0.6979    0.0000 C   0  0  0  0  0  0  0  0  0  0  0  0
    4.9279    0.2854    0.0000 C   0  0  0  0  0  0  0  0  0  0  0  0
    4.2135    0.6979    0.0000 C   0  0  0  0  0  0  0  0  0  0  0  0
    4.2135    1.5229    0.0000 C   0  0  0  0  0  0  0  0  0  0  0  0
    4.9279    1.9354    0.0000 C   0  0  0  0  0  0  0  0  0  0  0  0
    3.4990    0.2854    0.0000 N   0  0  0  0  0  0  0  0  0  0  0  0
    3.4990   -0.5396    0.0000 C   0  0  0  0  0  0  0  0  0  0  0  0
    4.2135   -0.9521    0.0000 C   0  0  0  0  0  0  0  0  0  0  0  0
    4.2135   -1.7771    0.0000 C   0  0  0  0  0  0  0  0  0  0  0  0
    4.9279   -2.1896    0.0000 F   0  0  0  0  0  0  0  0  0  0  0  0
    3.4990   -2.1896    0.0000 C   0  0  0  0  0  0  0  0  0  0  0  0
    3.4990   -3.0146    0.0000 N   0  0  0  0  0  0  0  0  0  0  0  0
    2.7845   -3.4271    0.0000 C   0  0  0  0  0  0  0  0  0  0  0  0
    2.7845   -4.2521    0.0000 C   0  0  0  0  0  0  0  0  0  0  0  0
    2.0701   -3.0146    0.0000 O   0  0  0  0  0  0  0  0  0  0  0  0
    2.7845   -1.7771    0.0000 C   0  0  0  0  0  0  0  0  0  0  0  0
    2.7845   -0.9521    0.0000 C   0  0  0  0  0  0  0  0  0  0  0  0
    2.7845    0.6979    0.0000 S   0  0  0  0  0  0  0  0  0  0  0  0
    2.3720   -0.0165    0.0000 O   0  0  0  0  0  0  0  0  0  0  0  0
    3.1970    1.4124    0.0000 O   0  0  0  0  0  0  0  0  0  0  0  0
    2.0701    1.1104    0.0000 C   0  0  0  0  0  0  0  0  0  0  0  0
    1.3556    0.6979    0.0000 C   0  0  0  0  0  0  0  0  0  0  0  0
    0.6411    1.1104    0.0000 N   0  0  0  0  0  0  0  0  0  0  0  0
   -0.1435    0.8555    0.0000 C   0  0  0  0  0  0  0  0  0  0  0  0
   -0.6284    1.5229    0.0000 N   0  0  0  0  0  0  0  0  0  0  0  0
   -0.1435    2.1904    0.0000 N   0  0  0  0  0  0  0  0  0  0  0  0
    0.6411    1.9354    0.0000 C   0  0  0  0  0  0  0  0  0  0  0  0
    1.3556    2.3479    0.0000 C   0  0  0  0  0  0  0  0  0  0  0  0
    2.0701    1.9354    0.0000 C   0  0  0  0  0  0  0  0  0  0  0  0
  1  2  1  0  0  0  0
  2  3  1  0  0  0  0
  3  4  2  0  0  0  0
  4  5  1  0  0  0  0
  5  6  2  0  0  0  0
  6  7  1  0  0  0  0
  7  8  2  0  0  0  0
  3  8  1  0  0  0  0
  6  9  1  0  0  0  0
  9 10  1  0  0  0  0
 10 11  2  0  0  0  0
 11 12  1  0  0  0  0
 12 13  1  0  0  0  0
 12 14  2  0  0  0  0
 14 15  1  0  0  0  0
 15 16  1  0  0  0  0
 16 17  1  0  0  0  0
 16 18  2  0  0  0  0
 14 19  1  0  0  0  0
 19 20  2  0  0  0  0
 10 20  1  0  0  0  0
  9 21  1  0  0  0  0
 21 22  2  0  0  0  0
 21 23  2  0  0  0  0
 21 24  1  0  0  0  0
 24 25  2  0  0  0  0
 25 26  1  0  0  0  0
 26 27  1  0  0  0  0
 27 28  2  0  0  0  0
 28 29  1  0  0  0  0
 29 30  2  0  0  0  0
 26 30  1  0  0  0  0
 30 31  1  0  0  0  0
 31 32  2  0  0  0  0
 24 32  1  0  0  0  0
M  END
> <ID>
CPD_2950

$$$$
CPD_2955
  Mrv1822 09091914012D          

 33 37  0  0  0  0            999 V2000
    4.2135   -3.4271    0.0000 C   0  0  0  0  0  0  0  0  0  0  0  0
    3.4990   -3.0146    0.0000 C   0  0  0  0  0  0  0  0  0  0  0  0
    3.4990   -2.1896    0.0000 C   0  0  0  0  0  0  0  0  0  0  0  0
    2.7845   -1.7771    0.0000 C   0  0  0  0  0  0  0  0  0  0  0  0
    2.7845   -0.9521    0.0000 C   0  0  0  0  0  0  0  0  0  0  0  0
    3.4990   -0.5396    0.0000 C   0  0  0  0  0  0  0  0  0  0  0  0
    4.2135   -0.9521    0.0000 C   0  0  0  0  0  0  0  0  0  0  0  0
    4.2135   -1.7771    0.0000 C   0  0  0  0  0  0  0  0  0  0  0  0
    3.4990    0.2854    0.0000 N   0  0  0  0  0  0  0  0  0  0  0  0
    4.2135    0.6979    0.0000 C   0  0  0  0  0  0  0  0  0  0  0  0
    4.2135    1.5229    0.0000 C   0  0  0  0  0  0  0  0  0  0  0  0
    4.9279    1.9354    0.0000 C   0  0  0  0  0  0  0  0  0  0  0  0
    5.6424    1.5229    0.0000 N   0  0  0  0  0  0  0  0  0  0  0  0
    5.6424    0.6979    0.0000 C   0  0  0  0  0  0  0  0  0  0  0  0
    4.9279    0.2854    0.0000 N   0  0  0  0  0  0  0  0  0  0  0  0
    6.3569    0.2854    0.0000 N   0  0  0  0  0  0  0  0  0  0  0  0
    7.0714    0.6979    0.0000 C   0  0  0  0  0  0  0  0  0  0  0  0
    7.7858    0.2854    0.0000 C   0  0  0  0  0  0  0  0  0  0  0  0
    7.7858   -0.5396    0.0000 O   0  0  0  0  0  0  0  0  0  0  0  0
    7.0714   -0.9521    0.0000 C   0  0  0  0  0  0  0  0  0  0  0  0
    6.3569   -0.5396    0.0000 C   0  0  0  0  0  0  0  0  0  0  0  0
    2.7845    0.6979    0.0000 S   0  0  0  0  0  0  0  0  0  0  0  0
    3.1970    1.4124    0.0000 O   0  0  0  0  0  0  0  0  0  0  0  0
    2.3720   -0.0165    0.0000 O   0  0  0  0  0  0  0  0  0  0  0  0
    2.0701    1.1104    0.0000 C   0  0  0  0  0  0  0  0  0  0  0  0
    1.3556    0.6979    0.0000 C   0  0  0  0  0  0  0  0  0  0  0  0
    0.6411    1.1104    0.0000 N   0  0  0  0  0  0  0  0  0  0  0  0
   -0.1435    0.8555    0.0000 C   0  0  0  0  0  0  0  0  0  0  0  0
   -0.6284    1.5229    0.0000 N   0  0  0  0  0  0  0  0  0  0  0  0
   -0.1435    2.1904    0.0000 N   0  0  0  0  0  0  0  0  0  0  0  0
    0.6411    1.9354    0.0000 C   0  0  0  0  0  0  0  0  0  0  0  0
    1.3556    2.3479    0.0000 C   0  0  0  0  0  0  0  0  0  0  0  0
    2.0701    1.9354    0.0000 C   0  0  0  0  0  0  0  0  0  0  0  0
  1  2  1  0  0  0  0
  2  3  1  0  0  0  0
  3  4  2  0  0  0  0
  4  5  1  0  0  0  0
  5  6  2  0  0  0  0
  6  7  1  0  0  0  0
  7  8  2  0  0  0  0
  3  8  1  0  0  0  0
  6  9  1  0  0  0  0
  9 10  1  0  0  0  0
 10 11  2  0  0  0  0
 11 12  1  0  0  0  0
 12 13  2  0  0  0  0
 13 14  1  0  0  0  0
 14 15  2  0  0  0  0
 10 15  1  0  0  0  0
 14 16  1  0  0  0  0
 16 17  1  0  0  0  0
 17 18  1  0  0  0  0
 18 19  1  0  0  0  0
 19 20  1  0  0  0  0
 20 21  1  0  0  0  0
 16 21  1  0  0  0  0
  9 22  1  0  0  0  0
 22 23  2  0  0  0  0
 22 24  2  0  0  0  0
 22 25  1  0  0  0  0
 25 26  2  0  0  0  0
 26 27  1  0  0  0  0
 27 28  1  0  0  0  0
 28 29  2  0  0  0  0
 29 30  1  0  0  0  0
 30 31  2  0  0  0  0
 27 31  1  0  0  0  0
 31 32  1  0  0  0  0
 32 33  2  0  0  0  0
 25 33  1  0  0  0  0
M  END
> <ID>
CPD_2955

$$$$
CPD_2960
  Mrv1822 09091914012D          

 32 35  0  0  0  0            999 V2000
    6.3569    2.7604    0.0000 C   0  0  0  0  0  0  0  0  0  0  0  0
    6.3569    1.9354    0.0000 C   0  0  0  0  0  0  0  0  0  0  0  0
    5.6424    1.5229    0.0000 C   0  0  0  0  0  0  0  0  0  0  0  0
    5.6424    0.6979    0.0000 C   0  0  0  0  0  0  0  0  0  0  0  0
    4.9279    0.2854    0.0000 C   0  0  0  0  0  0  0  0  0  0  0  0
    4.2135    0.6979    0.0000 C   0  0  0  0  0  0  0  0  0  0  0  0
    4.2135    1.5229    0.0000 C   0  0  0  0  0  0  0  0  0  0  0  0
    4.9279    1.9354    0.0000 C   0  0  0  0  0  0  0  0  0  0  0  0
    3.4990    0.2854    0.0000 N   0  0  0  0  0  0  0  0  0  0  0  0
    3.4990   -0.5396    0.0000 C   0  0  0  0  0  0  0  0  0  0  0  0
    4.2135   -0.9521    0.0000 C   0  0  0  0  0  0  0  0  0  0  0  0
    4.9279   -0.5396    0.0000 C   0  0  0  0  0  0  0  0  0  0  0  0
    5.6424   -0.9521    0.0000 C   0  0  0  0  0  0  0  0  0  0  0  0
    6.3569   -0.5396    0.0000 O   0  0  0  0  0  0  0  0  0  0  0  0
    5.6424   -1.7771    0.0000 O   0  0  0  0  0  0  0  0  0  0  0  0
    4.2135   -1.7771    0.0000 C   0  0  0  0  0  0  0  0  0  0  0  0
    3.4990   -2.1896    0.0000 C   0  0  0  0  0  0  0  0  0  0  0  0
    2.7845   -1.7771    0.0000 C   0  0  0  0  0  0  0  0  0  0  0  0
    2.0701   -2.1896    0.0000 Cl  0  0  0  0  0  0  0  0  0  0  0  0
    2.7845   -0.9521    0.0000 C   0  0  0  0  0  0  0  0  0  0  0  0
    2.7845    0.6979    0.0000 S   0  0  0  0  0  0  0  0  0  0  0  0
    3.1970    1.4124    0.0000 O   0  0  0  0  0  0  0  0  0  0  0  0
    2.3720   -0.0165    0.0000 O   0  0  0  0  0  0  0  0  0  0  0  0
    2.0701    1.1104    0.0000 C   0  0  0  0  0  0  0  0  0  0  0  0
    1.3556    0.6979    0.0000 C   0  0  0  0  0  0  0  0  0  0  0  0
    0.6411    1.1104    0.0000 N   0  0  0  0  0  0  0  0  0  0  0  0
   -0.1435    0.8555    0.0000 C   0  0  0  0  0  0  0  0  0  0  0  0
   -0.6284    1.5229    0.0000 N   0  0  0  0  0  0  0  0  0  0  0  0
   -0.1435    2.1904    0.0000 N   0  0  0  0  0  0  0  0  0  0  0  0
    0.6411    1.9354    0.0000 C   0  0  0  0  0  0  0  0  0  0  0  0
    1.3556    2.3479    0.0000 C   0  0  0  0  0  0  0  0  0  0  0  0
    2.0701    1.9354    0.0000 C   0  0  0  0  0  0  0  0  0  0  0  0
  1  2  1  0  0  0  0
  2  3  1  0  0  0  0
  3  4  2  0  0  0  0
  4  5  1  0  0  0  0
  5  6  2  0  0  0  0
  6  7  1  0  0  0  0
  7  8  2  0  0  0  0
  3  8  1  0  0  0  0
  6  9  1  0  0  0  0
  9 10  1  0  0  0  0
 10 11  2  0  0  0  0
 11 12  1  0  0  0  0
 12 13  1  0  0  0  0
 13 14  1  0  0  0  0
 13 15  2  0  0  0  0
 11 16  1  0  0  0  0
 16 17  2  0  0  0  0
 17 18  1  0  0  0  0
 18 19  1  0  0  0  0
 18 20  2  0  0  0  0
 10 20  1  0  0  0  0
  9 21  1  0  0  0  0
 21 22  2  0  0  0  0
 21 23  2  0  0  0  0
 21 24  1  0  0  0  0
 24 25  2  0  0  0  0
 25 26  1  0  0  0  0
 26 27  1  0  0  0  0
 27 28  2  0  0  0  0
 28 29  1  0  0  0  0
 29 30  2  0  0  0  0
 26 30  1  0  0  0  0
 30 31  1  0  0  0  0
 31 32  2  0  0  0  0
 24 32  1  0  0  0  0
M  END
> <ID>
CPD_2960

$$$$
CPD_2965
  Mrv1822 09091914012D          

 35 40  0  0  0  0            999 V2000
    4.9279   -2.1896    0.0000 F   0  0  0  0  0  0  0  0  0  0  0  0
    4.2135   -1.7771    0.0000 C   0  0  0  0  0  0  0  0  0  0  0  0
    3.4990   -2.1896    0.0000 C   0  0  0  0  0  0  0  0  0  0  0  0
    2.7845   -1.7771    0.0000 C   0  0  0  0  0  0  0  0  0  0  0  0
    2.7845   -0.9521    0.0000 C   0  0  0  0  0  0  0  0  0  0  0  0
    3.4990   -0.5396    0.0000 C   0  0  0  0  0  0  0  0  0  0  0  0
    4.2135   -0.9521    0.0000 C   0  0  0  0  0  0  0  0  0  0  0  0
    3.4990    0.2854    0.0000 N   0  0  0  0  0  0  0  0  0  0  0  0
    4.2135    0.6979    0.0000 C   0  0  0  0  0  0  0  0  0  0  0  0
    4.2135    1.5229    0.0000 C   0  0  0  0  0  0  0  0  0  0  0  0
    4.9279    1.9354    0.0000 C   0  0  0  0  0  0  0  0  0  0  0  0
    5.6424    1.5229    0.0000 C   0  0  0  0  0  0  0  0  0  0  0  0
    5.6424    0.6979    0.0000 C   0  0  0  0  0  0  0  0  0  0  0  0
    4.9279    0.2854    0.0000 C   0  0  0  0  0  0  0  0  0  0  0  0
    4.9279    2.7604    0.0000 C   0  0  0  0  0  0  0  0  0  0  0  0
    4.2605    3.2454    0.0000 C   0  0  0  0  0  0  0  0  0  0  0  0
    4.5154    4.0300    0.0000 C   0  0  0  0  0  0  0  0  0  0  0  0
    4.1029    4.7445    0.0000 C   0  0  0  0  0  0  0  0  0  0  0  0
    4.5154    5.4589    0.0000 C   0  0  0  0  0  0  0  0  0  0  0  0
    5.3404    5.4589    0.0000 C   0  0  0  0  0  0  0  0  0  0  0  0
    5.7529    4.7445    0.0000 C   0  0  0  0  0  0  0  0  0  0  0  0
    5.3404    4.0300    0.0000 C   0  0  0  0  0  0  0  0  0  0  0  0
    5.5954    3.2454    0.0000 N   0  0  0  0  0  0  0  0  0  0  0  0
    2.7845    0.6979    0.0000 S   0  0  0  0  0  0  0  0  0  0  0  0
    3.1970    1.4124    0.0000 O   0  0  0  0  0  0  0  0  0  0  0  0
    2.3720   -0.0165    0.0000 O   0  0  0  0  0  0  0  0  0  0  0  0
    2.0701    1.1104    0.0000 C   0  0  0  0  0  0  0  0  0  0  0  0
    1.3556    0.6979    0.0000 C   0  0  0  0  0  0  0  0  0  0  0  0
    0.6411    1.1104    0.0000 N   0  0  0  0  0  0  0  0  0  0  0  0
   -0.1435    0.8555    0.0000 C   0  0  0  0  0  0  0  0  0  0  0  0
   -0.6284    1.5229    0.0000 N   0  0  0  0  0  0  0  0  0  0  0  0
   -0.1435    2.1904    0.0000 N   0  0  0  0  0  0  0  0  0  0  0  0
    0.6411    1.9354    0.0000 C   0  0  0  0  0  0  0  0  0  0  0  0
    1.3556    2.3479    0.0000 C   0  0  0  0  0  0  0  0  0  0  0  0
    2.0701    1.9354    0.0000 C   0  0  0  0  0  0  0  0  0  0  0  0
  1  2  1  0  0  0  0
  2  3  2  0  0  0  0
  3  4  1  0  0  0  0
  4  5  2  0  0  0  0
  5  6  1  0  0  0  0
  6  7  2  0  0  0  0
  2  7  1  0  0  0  0
  6  8  1  0  0  0  0
  8  9  1  0  0  0  0
  9 10  2  0  0  0  0
 10 11  1  0  0  0  0
 11 12  2  0  0  0  0
 12 13  1  0  0  0  0
 13 14  2  0  0  0  0
  9 14  1  0  0  0  0
 11 15  1  0  0  0  0
 15 16  1  0  0  0  0
 16 17  1  0  0  0  0
 17 18  2  0  0  0  0
 18 19  1  0  0  0  0
 19 20  2  0  0  0  0
 20 21  1  0  0  0  0
 21 22  2  0  0  0  0
 17 22  1  0  0  0  0
 22 23  1  0  0  0  0
 15 23  1  0  0  0  0
  8 24  1  0  0  0  0
 24 25  2  0  0  0  0
 24 26  2  0  0  0  0
 24 27  1  0  0  0  0
 27 28  2  0  0  0  0
 28 29  1  0  0  0  0
 29 30  1  0  0  0  0
 30 31  2  0  0  0  0
 31 32  1  0  0  0  0
 32 33  2  0  0  0  0
 29 33  1  0  0  0  0
 33 34  1  0  0  0  0
 34 35  2  0  0  0  0
 27 35  1  0  0  0  0
M  END
> <ID>
CPD_2965

$$$$
CPD_2970
  Mrv1822 09091914012D          

 35 39  0  0  0  0            999 V2000
   -1.1224    2.0209    0.0000 C   0  0  0  0  0  0  0  0  0  0  0  0
   -0.3154    1.8493    0.0000 C   0  0  0  0  0  0  0  0  0  0  0  0
   -0.0605    1.0647    0.0000 C   0  0  0  0  0  0  0  0  0  0  0  0
   -0.5454    0.3973    0.0000 N   0  0  0  0  0  0  0  0  0  0  0  0
   -0.0605   -0.2702    0.0000 N   0  0  0  0  0  0  0  0  0  0  0  0
    0.7242   -0.0152    0.0000 C   0  0  0  0  0  0  0  0  0  0  0  0
    0.7242    0.8098    0.0000 N   0  0  0  0  0  0  0  0  0  0  0  0
    1.4386    1.2223    0.0000 C   0  0  0  0  0  0  0  0  0  0  0  0
    2.1531    0.8098    0.0000 C   0  0  0  0  0  0  0  0  0  0  0  0
    2.1531   -0.0152    0.0000 C   0  0  0  0  0  0  0  0  0  0  0  0
    1.4386   -0.4277    0.0000 C   0  0  0  0  0  0  0  0  0  0  0  0
    1.4386   -1.2527    0.0000 S   0  0  0  0  0  0  0  0  0  0  0  0
    0.6136   -1.2527    0.0000 O   0  0  0  0  0  0  0  0  0  0  0  0
    2.2636   -1.2527    0.0000 O   0  0  0  0  0  0  0  0  0  0  0  0
    1.4386   -2.0777    0.0000 N   0  0  0  0  0  0  0  0  0  0  0  0
    0.7242   -2.4902    0.0000 C   0  0  0  0  0  0  0  0  0  0  0  0
    0.7242   -3.3152    0.0000 C   0  0  0  0  0  0  0  0  0  0  0  0
    0.0097   -3.7277    0.0000 C   0  0  0  0  0  0  0  0  0  0  0  0
    0.0097   -4.5527    0.0000 F   0  0  0  0  0  0  0  0  0  0  0  0
   -0.7048   -3.3152    0.0000 C   0  0  0  0  0  0  0  0  0  0  0  0
   -0.7048   -2.4902    0.0000 C   0  0  0  0  0  0  0  0  0  0  0  0
   -1.4193   -2.0777    0.0000 F   0  0  0  0  0  0  0  0  0  0  0  0
    0.0097   -2.0777    0.0000 C   0  0  0  0  0  0  0  0  0  0  0  0
    2.1531   -2.4902    0.0000 C   0  0  0  0  0  0  0  0  0  0  0  0
    2.4080   -3.2748    0.0000 C   0  0  0  0  0  0  0  0  0  0  0  0
    3.2150   -3.4464    0.0000 N   0  0  0  0  0  0  0  0  0  0  0  0
    3.7670   -2.8333    0.0000 C   0  0  0  0  0  0  0  0  0  0  0  0
    3.5121   -2.0487    0.0000 C   0  0  0  0  0  0  0  0  0  0  0  0
    2.7051   -1.8771    0.0000 N   0  0  0  0  0  0  0  0  0  0  0  0
    1.8560   -3.8879    0.0000 C   0  0  0  0  0  0  0  0  0  0  0  0
    2.1109   -4.6726    0.0000 C   0  0  0  0  0  0  0  0  0  0  0  0
    1.5589   -5.2857    0.0000 C   0  0  0  0  0  0  0  0  0  0  0  0
    0.7519   -5.1141    0.0000 C   0  0  0  0  0  0  0  0  0  0  0  0
    0.4970   -4.3295    0.0000 C   0  0  0  0  0  0  0  0  0  0  0  0
    1.0490   -3.7164    0.0000 C   0  0  0  0  0  0  0  0  0  0  0  0
  1  2  1  0  0  0  0
  2  3  1  0  0  0  0
  3  4  2  0  0  0  0
  4  5  1  0  0  0  0
  5  6  2  0  0  0  0
  6  7  1  0  0  0  0
  3  7  1  0  0  0  0
  7  8  1  0  0  0  0
  8  9  2  0  0  0  0
  9 10  1  0  0  0  0
 10 11  2  0  0  0  0
  6 11  1  0  0  0  0
 11 12  1  0  0  0  0
 12 13  2  0  0  0  0
 12 14  2  0  0  0  0
 12 15  1  0  0  0  0
 15 16  1  0  0  0  0
 16 17  2  0  0  0  0
 17 18  1  0  0  0  0
 18 19  1  0  0  0  0
 18 20  2  0  0  0  0
 20 21  1  0  0  0  0
 21 22  1  0  0  0  0
 21 23  2  0  0  0  0
 16 23  1  0  0  0  0
 15 24  1  0  0  0  0
 24 25  2  0  0  0  0
 25 26  1  0  0  0  0
 26 27  2  0  0  0  0
 27 28  1  0  0  0  0
 28 29  2  0  0  0  0
 24 29  1  0  0  0  0
 25 30  1  0  0  0  0
 30 31  2  0  0  0  0
 31 32  1  0  0  0  0
 32 33  2  0  0  0  0
 33 34  1  0  0  0  0
 34 35  2  0  0  0  0
 30 35  1  0  0  0  0
M  END
> <ID>
CPD_2970

$$$$
CPD_2975
  Mrv1822 09091914012D          

 33 36  0  0  0  0            999 V2000
   -1.2054    0.9256    0.0000 C   0  0  0  0  0  0  0  0  0  0  0  0
   -0.3984    0.7541    0.0000 C   0  0  0  0  0  0  0  0  0  0  0  0
   -0.1435   -0.0305    0.0000 C   0  0  0  0  0  0  0  0  0  0  0  0
   -0.6284   -0.6979    0.0000 N   0  0  0  0  0  0  0  0  0  0  0  0
   -0.1435   -1.3654    0.0000 N   0  0  0  0  0  0  0  0  0  0  0  0
    0.6411   -1.1104    0.0000 C   0  0  0  0  0  0  0  0  0  0  0  0
    0.6411   -0.2854    0.0000 N   0  0  0  0  0  0  0  0  0  0  0  0
    1.3556    0.1271    0.0000 C   0  0  0  0  0  0  0  0  0  0  0  0
    2.0701   -0.2854    0.0000 C   0  0  0  0  0  0  0  0  0  0  0  0
    2.0701   -1.1104    0.0000 C   0  0  0  0  0  0  0  0  0  0  0  0
    1.3556   -1.5229    0.0000 C   0  0  0  0  0  0  0  0  0  0  0  0
    1.3556   -2.3479    0.0000 S   0  0  0  0  0  0  0  0  0  0  0  0
    0.5306   -2.3479    0.0000 O   0  0  0  0  0  0  0  0  0  0  0  0
    2.1806   -2.3479    0.0000 O   0  0  0  0  0  0  0  0  0  0  0  0
    1.3556   -3.1729    0.0000 N   0  0  0  0  0  0  0  0  0  0  0  0
    0.6411   -3.5854    0.0000 C   0  0  0  0  0  0  0  0  0  0  0  0
    0.6411   -4.4104    0.0000 C   0  0  0  0  0  0  0  0  0  0  0  0
   -0.0734   -4.8229    0.0000 C   0  0  0  0  0  0  0  0  0  0  0  0
   -0.0734   -5.6479    0.0000 F   0  0  0  0  0  0  0  0  0  0  0  0
   -0.7878   -4.4104    0.0000 C   0  0  0  0  0  0  0  0  0  0  0  0
   -0.7878   -3.5854    0.0000 C   0  0  0  0  0  0  0  0  0  0  0  0
   -1.5023   -3.1729    0.0000 F   0  0  0  0  0  0  0  0  0  0  0  0
   -0.0734   -3.1729    0.0000 C   0  0  0  0  0  0  0  0  0  0  0  0
    2.0701   -3.5854    0.0000 C   0  0  0  0  0  0  0  0  0  0  0  0
    2.7845   -3.1729    0.0000 C   0  0  0  0  0  0  0  0  0  0  0  0
    2.7845   -2.3479    0.0000 F   0  0  0  0  0  0  0  0  0  0  0  0
    3.4990   -3.5854    0.0000 C   0  0  0  0  0  0  0  0  0  0  0  0
    4.2135   -3.1729    0.0000 Cl  0  0  0  0  0  0  0  0  0  0  0  0
    3.4990   -4.4104    0.0000 C   0  0  0  0  0  0  0  0  0  0  0  0
    2.7845   -4.8229    0.0000 C   0  0  0  0  0  0  0  0  0  0  0  0
    2.7845   -5.6479    0.0000 N   0  0  0  0  0  0  0  0  0  0  0  0
    2.0701   -4.4104    0.0000 C   0  0  0  0  0  0  0  0  0  0  0  0
    1.3556   -4.8229    0.0000 F   0  0  0  0  0  0  0  0  0  0  0  0
  1  2  1  0  0  0  0
  2  3  1  0  0  0  0
  3  4  2  0  0  0  0
  4  5  1  0  0  0  0
  5  6  2  0  0  0  0
  6  7  1  0  0  0  0
  3  7  1  0  0  0  0
  7  8  1  0  0  0  0
  8  9  2  0  0  0  0
  9 10  1  0  0  0  0
 10 11  2  0  0  0  0
  6 11  1  0  0  0  0
 11 12  1  0  0  0  0
 12 13  2  0  0  0  0
 12 14  2  0  0  0  0
 12 15  1  0  0  0  0
 15 16  1  0  0  0  0
 16 17  2  0  0  0  0
 17 18  1  0  0  0  0
 18 19  1  0  0  0  0
 18 20  2  0  0  0  0
 20 21  1  0  0  0  0
 21 22  1  0  0  0  0
 21 23  2  0  0  0  0
 16 23  1  0  0  0  0
 15 24  1  0  0  0  0
 24 25  2  0  0  0  0
 25 26  1  0  0  0  0
 25 27  1  0  0  0  0
 27 28  1  0  0  0  0
 27 29  2  0  0  0  0
 29 30  1  0  0  0  0
 30 31  1  0  0  0  0
 30 32  2  0  0  0  0
 24 32  1  0  0  0  0
 32 33  1  0  0  0  0
M  END
> <ID>
CPD_2975

$$$$
CPD_2980
  Mrv1822 09091914012D          

 31 34  0  0  0  0            999 V2000
    5.6424    3.9979    0.0000 O   0  0  0  0  0  0  0  0  0  0  0  0
    5.6424    3.1729    0.0000 C   0  0  0  0  0  0  0  0  0  0  0  0
    4.9279    2.7604    0.0000 C   0  0  0  0  0  0  0  0  0  0  0  0
    4.9279    1.9354    0.0000 C   0  0  0  0  0  0  0  0  0  0  0  0
    5.6424    1.5229    0.0000 C   0  0  0  0  0  0  0  0  0  0  0  0
    5.6424    0.6979    0.0000 C   0  0  0  0  0  0  0  0  0  0  0  0
    4.9279    0.2854    0.0000 C   0  0  0  0  0  0  0  0  0  0  0  0
    4.9279   -0.5396    0.0000 F   0  0  0  0  0  0  0  0  0  0  0  0
    4.2135    0.6979    0.0000 C   0  0  0  0  0  0  0  0  0  0  0  0
    3.4990    0.2854    0.0000 N   0  0  0  0  0  0  0  0  0  0  0  0
    3.4990   -0.5396    0.0000 C   0  0  0  0  0  0  0  0  0  0  0  0
    4.2135   -0.9521    0.0000 C   0  0  0  0  0  0  0  0  0  0  0  0
    4.2135   -1.7771    0.0000 C   0  0  0  0  0  0  0  0  0  0  0  0
    4.9279   -2.1896    0.0000 Cl  0  0  0  0  0  0  0  0  0  0  0  0
    3.4990   -2.1896    0.0000 C   0  0  0  0  0  0  0  0  0  0  0  0
    2.7845   -1.7771    0.0000 C   0  0  0  0  0  0  0  0  0  0  0  0
    2.7845   -0.9521    0.0000 C   0  0  0  0  0  0  0  0  0  0  0  0
    2.7845    0.6979    0.0000 S   0  0  0  0  0  0  0  0  0  0  0  0
    3.1970    1.4124    0.0000 O   0  0  0  0  0  0  0  0  0  0  0  0
    2.3720   -0.0165    0.0000 O   0  0  0  0  0  0  0  0  0  0  0  0
    2.0701    1.1104    0.0000 C   0  0  0  0  0  0  0  0  0  0  0  0
    1.3556    0.6979    0.0000 C   0  0  0  0  0  0  0  0  0  0  0  0
    0.6411    1.1104    0.0000 N   0  0  0  0  0  0  0  0  0  0  0  0
   -0.1435    0.8555    0.0000 C   0  0  0  0  0  0  0  0  0  0  0  0
   -0.6284    1.5229    0.0000 N   0  0  0  0  0  0  0  0  0  0  0  0
   -0.1435    2.1904    0.0000 N   0  0  0  0  0  0  0  0  0  0  0  0
    0.6411    1.9354    0.0000 C   0  0  0  0  0  0  0  0  0  0  0  0
    1.3556    2.3479    0.0000 C   0  0  0  0  0  0  0  0  0  0  0  0
    2.0701    1.9354    0.0000 C   0  0  0  0  0  0  0  0  0  0  0  0
    4.2135    1.5229    0.0000 C   0  0  0  0  0  0  0  0  0  0  0  0
    3.4990    1.9354    0.0000 F   0  0  0  0  0  0  0  0  0  0  0  0
  1  2  1  0  0  0  0
  2  3  1  0  0  0  0
  3  4  1  0  0  0  0
  4  5  2  0  0  0  0
  5  6  1  0  0  0  0
  6  7  2  0  0  0  0
  7  8  1  0  0  0  0
  7  9  1  0  0  0  0
  9 10  1  0  0  0  0
 10 11  1  0  0  0  0
 11 12  2  0  0  0  0
 12 13  1  0  0  0  0
 13 14  1  0  0  0  0
 13 15  2  0  0  0  0
 15 16  1  0  0  0  0
 16 17  2  0  0  0  0
 11 17  1  0  0  0  0
 10 18  1  0  0  0  0
 18 19  2  0  0  0  0
 18 20  2  0  0  0  0
 18 21  1  0  0  0  0
 21 22  2  0  0  0  0
 22 23  1  0  0  0  0
 23 24  1  0  0  0  0
 24 25  2  0  0  0  0
 25 26  1  0  0  0  0
 26 27  2  0  0  0  0
 23 27  1  0  0  0  0
 27 28  1  0  0  0  0
 28 29  2  0  0  0  0
 21 29  1  0  0  0  0
  9 30  2  0  0  0  0
  4 30  1  0  0  0  0
 30 31  1  0  0  0  0
M  END
> <ID>
CPD_2980

$$$$
CPD_2985
  Mrv1822 09091914012D          

 26 28  0  0  0  0            999 V2000
   -0.7145    3.7125    0.0000 C   0  0  0  0  0  0  0  0  0  0  0  0
    0.0000    3.3000    0.0000 O   0  0  0  0  0  0  0  0  0  0  0  0
    0.0000    2.4750    0.0000 C   0  0  0  0  0  0  0  0  0  0  0  0
    0.7145    2.0625    0.0000 C   0  0  0  0  0  0  0  0  0  0  0  0
    0.7145    1.2375    0.0000 C   0  0  0  0  0  0  0  0  0  0  0  0
    0.0000    0.8250    0.0000 C   0  0  0  0  0  0  0  0  0  0  0  0
    0.0000   -0.0000    0.0000 N   0  0  0  0  0  0  0  0  0  0  0  0
    0.7145   -0.4125    0.0000 C   0  0  0  0  0  0  0  0  0  0  0  0
    0.7145   -1.2375    0.0000 C   0  0  0  0  0  0  0  0  0  0  0  0
    1.3819   -1.7224    0.0000 N   0  0  0  0  0  0  0  0  0  0  0  0
    1.1270   -2.5070    0.0000 C   0  0  0  0  0  0  0  0  0  0  0  0
    0.3020   -2.5070    0.0000 C   0  0  0  0  0  0  0  0  0  0  0  0
    0.0470   -1.7224    0.0000 S   0  0  0  0  0  0  0  0  0  0  0  0
    1.6119   -3.1745    0.0000 C   0  0  0  0  0  0  0  0  0  0  0  0
    2.4324   -3.0882    0.0000 C   0  0  0  0  0  0  0  0  0  0  0  0
    2.9173   -3.7557    0.0000 C   0  0  0  0  0  0  0  0  0  0  0  0
    2.5817   -4.5094    0.0000 C   0  0  0  0  0  0  0  0  0  0  0  0
    1.7613   -4.5956    0.0000 C   0  0  0  0  0  0  0  0  0  0  0  0
    1.4257   -5.3493    0.0000 Cl  0  0  0  0  0  0  0  0  0  0  0  0
    1.2763   -3.9282    0.0000 C   0  0  0  0  0  0  0  0  0  0  0  0
   -0.7145    1.2375    0.0000 C   0  0  0  0  0  0  0  0  0  0  0  0
   -1.4289    0.8250    0.0000 C   0  0  0  0  0  0  0  0  0  0  0  0
   -2.1434    0.4125    0.0000 N   0  0  0  0  0  0  0  0  0  0  0  0
   -0.7145    2.0625    0.0000 C   0  0  0  0  0  0  0  0  0  0  0  0
   -1.4289    2.4750    0.0000 O   0  0  0  0  0  0  0  0  0  0  0  0
   -1.4289    3.3000    0.0000 C   0  0  0  0  0  0  0  0  0  0  0  0
  1  2  1  0  0  0  0
  2  3  1  0  0  0  0
  3  4  2  0  0  0  0
  4  5  1  0  0  0  0
  5  6  2  0  0  0  0
  6  7  1  0  0  0  0
  7  8  1  0  0  0  0
  8  9  1  0  0  0  0
  9 10  2  0  0  0  0
 10 11  1  0  0  0  0
 11 12  2  0  0  0  0
 12 13  1  0  0  0  0
  9 13  1  0  0  0  0
 11 14  1  0  0  0  0
 14 15  2  0  0  0  0
 15 16  1  0  0  0  0
 16 17  2  0  0  0  0
 17 18  1  0  0  0  0
 18 19  1  0  0  0  0
 18 20  2  0  0  0  0
 14 20  1  0  0  0  0
  6 21  1  0  0  0  0
 21 22  1  0  0  0  0
 22 23  3  0  0  0  0
 21 24  2  0  0  0  0
  3 24  1  0  0  0  0
 24 25  1  0  0  0  0
 25 26  1  0  0  0  0
M  END
> <ID>
CPD_2985

$$$$
CPD_2990
  Mrv1822 09091914012D          

 25 27  0  0  0  0            999 V2000
    2.1434    3.7125    0.0000 C   0  0  0  0  0  0  0  0  0  0  0  0
    1.4289    3.3000    0.0000 O   0  0  0  0  0  0  0  0  0  0  0  0
    1.4289    2.4750    0.0000 C   0  0  0  0  0  0  0  0  0  0  0  0
    2.1434    2.0625    0.0000 O   0  0  0  0  0  0  0  0  0  0  0  0
    0.7145    2.0625    0.0000 C   0  0  0  0  0  0  0  0  0  0  0  0
    0.7145    1.2375    0.0000 N   0  0  0  0  0  0  0  0  0  0  0  0
    0.0000    0.8250    0.0000 C   0  0  0  0  0  0  0  0  0  0  0  0
    0.0000   -0.0000    0.0000 N   0  0  0  0  0  0  0  0  0  0  0  0
    0.7145   -0.4125    0.0000 C   0  0  0  0  0  0  0  0  0  0  0  0
    0.7145   -1.2375    0.0000 C   0  0  0  0  0  0  0  0  0  0  0  0
    1.3819   -1.7224    0.0000 N   0  0  0  0  0  0  0  0  0  0  0  0
    1.1270   -2.5070    0.0000 C   0  0  0  0  0  0  0  0  0  0  0  0
    0.3020   -2.5070    0.0000 C   0  0  0  0  0  0  0  0  0  0  0  0
    0.0470   -1.7224    0.0000 S   0  0  0  0  0  0  0  0  0  0  0  0
    1.6119   -3.1745    0.0000 C   0  0  0  0  0  0  0  0  0  0  0  0
    2.4324   -3.0882    0.0000 C   0  0  0  0  0  0  0  0  0  0  0  0
    2.9173   -3.7557    0.0000 C   0  0  0  0  0  0  0  0  0  0  0  0
    2.5817   -4.5094    0.0000 C   0  0  0  0  0  0  0  0  0  0  0  0
    1.7613   -4.5956    0.0000 C   0  0  0  0  0  0  0  0  0  0  0  0
    1.4257   -5.3493    0.0000 Cl  0  0  0  0  0  0  0  0  0  0  0  0
    1.2763   -3.9282    0.0000 C   0  0  0  0  0  0  0  0  0  0  0  0
   -0.7145    1.2375    0.0000 N   0  0  0  0  0  0  0  0  0  0  0  0
   -0.7145    2.0625    0.0000 C   0  0  0  0  0  0  0  0  0  0  0  0
   -1.4289    2.4750    0.0000 N   0  0  0  0  0  0  0  0  0  0  0  0
    0.0000    2.4750    0.0000 C   0  0  0  0  0  0  0  0  0  0  0  0
  1  2  1  0  0  0  0
  2  3  1  0  0  0  0
  3  4  2  0  0  0  0
  3  5  1  0  0  0  0
  5  6  2  0  0  0  0
  6  7  1  0  0  0  0
  7  8  1  0  0  0  0
  8  9  1  0  0  0  0
  9 10  1  0  0  0  0
 10 11  2  0  0  0  0
 11 12  1  0  0  0  0
 12 13  2  0  0  0  0
 13 14  1  0  0  0  0
 10 14  1  0  0  0  0
 12 15  1  0  0  0  0
 15 16  2  0  0  0  0
 16 17  1  0  0  0  0
 17 18  2  0  0  0  0
 18 19  1  0  0  0  0
 19 20  1  0  0  0  0
 19 21  2  0  0  0  0
 15 21  1  0  0  0  0
  7 22  2  0  0  0  0
 22 23  1  0  0  0  0
 23 24  1  0  0  0  0
 23 25  2  0  0  0  0
  5 25  1  0  0  0  0
M  END
> <ID>
CPD_2990

$$$$
CPD_2995
  Mrv1822 09091914012D          

 29 32  0  0  0  0            999 V2000
   -2.1434    4.5375    0.0000 F   0  0  0  0  0  0  0  0  0  0  0  0
   -1.4289    4.9500    0.0000 C   0  0  0  0  0  0  0  0  0  0  0  0
   -1.4289    5.7750    0.0000 C   0  0  0  0  0  0  0  0  0  0  0  0
   -0.7145    6.1875    0.0000 C   0  0  0  0  0  0  0  0  0  0  0  0
    0.0000    5.7750    0.0000 C   0  0  0  0  0  0  0  0  0  0  0  0
    0.0000    4.9500    0.0000 C   0  0  0  0  0  0  0  0  0  0  0  0
   -0.7145    4.5375    0.0000 C   0  0  0  0  0  0  0  0  0  0  0  0
   -0.7145    3.7125    0.0000 N   0  0  0  0  0  0  0  0  0  0  0  0
    0.0000    3.3000    0.0000 C   0  0  0  0  0  0  0  0  0  0  0  0
    0.0000    2.4750    0.0000 C   0  0  0  0  0  0  0  0  0  0  0  0
    0.7145    2.0625    0.0000 C   0  0  0  0  0  0  0  0  0  0  0  0
    0.7145    1.2375    0.0000 C   0  0  0  0  0  0  0  0  0  0  0  0
    0.0000    0.8250    0.0000 C   0  0  0  0  0  0  0  0  0  0  0  0
    0.0000   -0.0000    0.0000 N   0  0  0  0  0  0  0  0  0  0  0  0
    0.7145   -0.4125    0.0000 C   0  0  0  0  0  0  0  0  0  0  0  0
    0.7145   -1.2375    0.0000 C   0  0  0  0  0  0  0  0  0  0  0  0
    1.3819   -1.7224    0.0000 N   0  0  0  0  0  0  0  0  0  0  0  0
    1.1270   -2.5070    0.0000 C   0  0  0  0  0  0  0  0  0  0  0  0
    0.3020   -2.5070    0.0000 C   0  0  0  0  0  0  0  0  0  0  0  0
    0.0470   -1.7224    0.0000 S   0  0  0  0  0  0  0  0  0  0  0  0
    1.6119   -3.1745    0.0000 C   0  0  0  0  0  0  0  0  0  0  0  0
    2.4324   -3.0882    0.0000 C   0  0  0  0  0  0  0  0  0  0  0  0
    2.9173   -3.7557    0.0000 C   0  0  0  0  0  0  0  0  0  0  0  0
    2.5817   -4.5094    0.0000 C   0  0  0  0  0  0  0  0  0  0  0  0
    1.7613   -4.5956    0.0000 C   0  0  0  0  0  0  0  0  0  0  0  0
    1.4257   -5.3493    0.0000 Cl  0  0  0  0  0  0  0  0  0  0  0  0
    1.2763   -3.9282    0.0000 C   0  0  0  0  0  0  0  0  0  0  0  0
   -0.7145    1.2375    0.0000 C   0  0  0  0  0  0  0  0  0  0  0  0
   -0.7145    2.0625    0.0000 C   0  0  0  0  0  0  0  0  0  0  0  0
  1  2  1  0  0  0  0
  2  3  2  0  0  0  0
  3  4  1  0  0  0  0
  4  5  2  0  0  0  0
  5  6  1  0  0  0  0
  6  7  2  0  0  0  0
  2  7  1  0  0  0  0
  7  8  1  0  0  0  0
  8  9  1  0  0  0  0
  9 10  1  0  0  0  0
 10 11  2  0  0  0  0
 11 12  1  0  0  0  0
 12 13  2  0  0  0  0
 13 14  1  0  0  0  0
 14 15  1  0  0  0  0
 15 16  1  0  0  0  0
 16 17  2  0  0  0  0
 17 18  1  0  0  0  0
 18 19  2  0  0  0  0
 19 20  1  0  0  0  0
 16 20  1  0  0  0  0
 18 21  1  0  0  0  0
 21 22  2  0  0  0  0
 22 23  1  0  0  0  0
 23 24  2  0  0  0  0
 24 25  1  0  0  0  0
 25 26  1  0  0  0  0
 25 27  2  0  0  0  0
 21 27  1  0  0  0  0
 13 28  1  0  0  0  0
 28 29  2  0  0  0  0
 10 29  1  0  0  0  0
M  END
> <ID>
CPD_2995

$$$$
CPD_3000
  Mrv1822 09091914012D          

 34 38  0  0  0  0            999 V2000
    3.3614    6.0135    0.0000 C   0  0  0  0  0  0  0  0  0  0  0  0
    3.5329    5.2065    0.0000 C   0  0  0  0  0  0  0  0  0  0  0  0
    2.9198    4.6545    0.0000 O   0  0  0  0  0  0  0  0  0  0  0  0
    3.0913    3.8475    0.0000 C   0  0  0  0  0  0  0  0  0  0  0  0
    3.8759    3.5926    0.0000 O   0  0  0  0  0  0  0  0  0  0  0  0
    2.4782    3.2955    0.0000 C   0  0  0  0  0  0  0  0  0  0  0  0
    2.5645    2.4750    0.0000 C   0  0  0  0  0  0  0  0  0  0  0  0
    3.2789    2.0625    0.0000 N   0  0  0  0  0  0  0  0  0  0  0  0
    3.2789    1.2375    0.0000 C   0  0  0  0  0  0  0  0  0  0  0  0
    3.9934    0.8250    0.0000 C   0  0  0  0  0  0  0  0  0  0  0  0
    3.9934    0.0000    0.0000 N   0  0  0  0  0  0  0  0  0  0  0  0
    3.2789   -0.4125    0.0000 N   0  0  0  0  0  0  0  0  0  0  0  0
    2.5645    0.0000    0.0000 C   0  0  0  0  0  0  0  0  0  0  0  0
    1.7798   -0.2549    0.0000 C   0  0  0  0  0  0  0  0  0  0  0  0
    1.2949    0.4125    0.0000 C   0  0  0  0  0  0  0  0  0  0  0  0
    1.7798    1.0799    0.0000 N   0  0  0  0  0  0  0  0  0  0  0  0
    2.5645    0.8250    0.0000 N   0  0  0  0  0  0  0  0  0  0  0  0
    1.5249   -1.0396    0.0000 C   0  0  0  0  0  0  0  0  0  0  0  0
    2.0769   -1.6527    0.0000 C   0  0  0  0  0  0  0  0  0  0  0  0
    1.8220   -2.4373    0.0000 C   0  0  0  0  0  0  0  0  0  0  0  0
    1.0150   -2.6088    0.0000 C   0  0  0  0  0  0  0  0  0  0  0  0
    0.4630   -1.9957    0.0000 C   0  0  0  0  0  0  0  0  0  0  0  0
    0.7179   -1.2111    0.0000 C   0  0  0  0  0  0  0  0  0  0  0  0
    4.7079    1.2375    0.0000 C   0  0  0  0  0  0  0  0  0  0  0  0
    4.7079    2.0625    0.0000 C   0  0  0  0  0  0  0  0  0  0  0  0
    5.4223    2.4750    0.0000 C   0  0  0  0  0  0  0  0  0  0  0  0
    6.1368    2.0625    0.0000 C   0  0  0  0  0  0  0  0  0  0  0  0
    6.1368    1.2375    0.0000 C   0  0  0  0  0  0  0  0  0  0  0  0
    5.4223    0.8250    0.0000 C   0  0  0  0  0  0  0  0  0  0  0  0
    1.8108    2.1394    0.0000 C   0  0  0  0  0  0  0  0  0  0  0  0
    1.6393    1.3325    0.0000 N   0  0  0  0  0  0  0  0  0  0  0  0
    1.2587    2.7525    0.0000 N   0  0  0  0  0  0  0  0  0  0  0  0
    1.6712    3.4670    0.0000 N   0  0  0  0  0  0  0  0  0  0  0  0
    1.3357    4.2207    0.0000 C   0  0  0  0  0  0  0  0  0  0  0  0
  1  2  1  0  0  0  0
  2  3  1  0  0  0  0
  3  4  1  0  0  0  0
  4  5  2  0  0  0  0
  4  6  1  0  0  0  0
  6  7  2  0  0  0  0
  7  8  1  0  0  0  0
  8  9  1  0  0  0  0
  9 10  2  0  0  0  0
 10 11  1  0  0  0  0
 11 12  2  0  0  0  0
 12 13  1  0  0  0  0
 13 14  2  0  0  0  0
 14 15  1  0  0  0  0
 15 16  2  0  0  0  0
 16 17  1  0  0  0  0
  9 17  1  0  0  0  0
 13 17  1  0  0  0  0
 14 18  1  0  0  0  0
 18 19  2  0  0  0  0
 19 20  1  0  0  0  0
 20 21  2  0  0  0  0
 21 22  1  0  0  0  0
 22 23  2  0  0  0  0
 18 23  1  0  0  0  0
 10 24  1  0  0  0  0
 24 25  2  0  0  0  0
 25 26  1  0  0  0  0
 26 27  2  0  0  0  0
 27 28  1  0  0  0  0
 28 29  2  0  0  0  0
 24 29  1  0  0  0  0
  7 30  1  0  0  0  0
 30 31  1  0  0  0  0
 30 32  2  0  0  0  0
 32 33  1  0  0  0  0
  6 33  1  0  0  0  0
 33 34  1  0  0  0  0
M  END
> <ID>
CPD_3000

$$$$
CPD_3005
  Mrv1822 09091914012D          

 20 22  0  0  0  0            999 V2000
    0.7145   -0.4125    0.0000 C   0  0  0  0  0  0  0  0  0  0  0  0
    0.7145   -1.2375    0.0000 C   0  0  0  0  0  0  0  0  0  0  0  0
    1.3819   -1.7224    0.0000 N   0  0  0  0  0  0  0  0  0  0  0  0
    1.1270   -2.5070    0.0000 C   0  0  0  0  0  0  0  0  0  0  0  0
    0.3020   -2.5070    0.0000 C   0  0  0  0  0  0  0  0  0  0  0  0
    0.0470   -1.7224    0.0000 S   0  0  0  0  0  0  0  0  0  0  0  0
    1.6119   -3.1745    0.0000 C   0  0  0  0  0  0  0  0  0  0  0  0
    2.4324   -3.0882    0.0000 C   0  0  0  0  0  0  0  0  0  0  0  0
    2.9173   -3.7557    0.0000 C   0  0  0  0  0  0  0  0  0  0  0  0
    2.5817   -4.5094    0.0000 C   0  0  0  0  0  0  0  0  0  0  0  0
    3.0667   -5.1768    0.0000 N   0  0  0  0  0  0  0  0  0  0  0  0
    3.8871   -5.0906    0.0000 C   0  0  0  0  0  0  0  0  0  0  0  0
    4.2996   -4.3761    0.0000 N   0  0  0  0  0  0  0  0  0  0  0  0
    5.1066   -4.5476    0.0000 N   0  0  0  0  0  0  0  0  0  0  0  0
    5.1929   -5.3681    0.0000 C   0  0  0  0  0  0  0  0  0  0  0  0
    5.9073   -5.7806    0.0000 C   0  0  0  0  0  0  0  0  0  0  0  0
    6.6218   -5.3681    0.0000 N   0  0  0  0  0  0  0  0  0  0  0  0
    4.4392   -5.7037    0.0000 N   0  0  0  0  0  0  0  0  0  0  0  0
    1.7613   -4.5956    0.0000 C   0  0  0  0  0  0  0  0  0  0  0  0
    1.2763   -3.9282    0.0000 C   0  0  0  0  0  0  0  0  0  0  0  0
  1  2  1  0  0  0  0
  2  3  2  0  0  0  0
  3  4  1  0  0  0  0
  4  5  2  0  0  0  0
  5  6  1  0  0  0  0
  2  6  1  0  0  0  0
  4  7  1  0  0  0  0
  7  8  2  0  0  0  0
  8  9  1  0  0  0  0
  9 10  2  0  0  0  0
 10 11  1  0  0  0  0
 11 12  1  0  0  0  0
 12 13  2  0  0  0  0
 13 14  1  0  0  0  0
 14 15  1  0  0  0  0
 15 16  1  0  0  0  0
 16 17  1  0  0  0  0
 15 18  2  0  0  0  0
 12 18  1  0  0  0  0
 10 19  1  0  0  0  0
 19 20  2  0  0  0  0
  7 20  1  0  0  0  0
M  END
> <ID>
CPD_3005

$$$$
CPD_3010
  Mrv1822 09091914012D          

 20 22  0  0  0  0            999 V2000
    1.3222   -0.0616    0.0000 N   0  0  0  0  0  0  0  0  0  0  0  0
    2.0367   -0.4741    0.0000 C   0  0  0  0  0  0  0  0  0  0  0  0
    2.0367   -1.2991    0.0000 C   0  0  0  0  0  0  0  0  0  0  0  0
    2.7041   -1.7840    0.0000 N   0  0  0  0  0  0  0  0  0  0  0  0
    2.4492   -2.5687    0.0000 C   0  0  0  0  0  0  0  0  0  0  0  0
    2.9341   -3.2361    0.0000 N   0  0  0  0  0  0  0  0  0  0  0  0
    2.5986   -3.9898    0.0000 C   0  0  0  0  0  0  0  0  0  0  0  0
    3.0835   -4.6572    0.0000 C   0  0  0  0  0  0  0  0  0  0  0  0
    2.7479   -5.4109    0.0000 C   0  0  0  0  0  0  0  0  0  0  0  0
    1.9275   -5.4971    0.0000 C   0  0  0  0  0  0  0  0  0  0  0  0
    1.4425   -4.8297    0.0000 C   0  0  0  0  0  0  0  0  0  0  0  0
    1.7781   -4.0760    0.0000 C   0  0  0  0  0  0  0  0  0  0  0  0
    1.2932   -3.4086    0.0000 Cl  0  0  0  0  0  0  0  0  0  0  0  0
    3.2329   -6.0783    0.0000 C   0  0  0  0  0  0  0  0  0  0  0  0
    4.0579   -6.0783    0.0000 N   0  0  0  0  0  0  0  0  0  0  0  0
    4.3128   -6.8629    0.0000 N   0  0  0  0  0  0  0  0  0  0  0  0
    3.6454   -7.3479    0.0000 N   0  0  0  0  0  0  0  0  0  0  0  0
    2.9779   -6.8629    0.0000 N   0  0  0  0  0  0  0  0  0  0  0  0
    1.6242   -2.5687    0.0000 N   0  0  0  0  0  0  0  0  0  0  0  0
    1.3693   -1.7840    0.0000 N   0  0  0  0  0  0  0  0  0  0  0  0
  1  2  1  0  0  0  0
  2  3  1  0  0  0  0
  3  4  2  0  0  0  0
  4  5  1  0  0  0  0
  5  6  1  0  0  0  0
  6  7  1  0  0  0  0
  7  8  2  0  0  0  0
  8  9  1  0  0  0  0
  9 10  2  0  0  0  0
 10 11  1  0  0  0  0
 11 12  2  0  0  0  0
  7 12  1  0  0  0  0
 12 13  1  0  0  0  0
  9 14  1  0  0  0  0
 14 15  2  0  0  0  0
 15 16  1  0  0  0  0
 16 17  2  0  0  0  0
 17 18  1  0  0  0  0
 14 18  1  0  0  0  0
  5 19  2  0  0  0  0
 19 20  1  0  0  0  0
  3 20  1  0  0  0  0
M  END
> <ID>
CPD_3010

$$$$
CPD_3015
  Mrv1822 09091914012D          

 31 33  0  0  0  0            999 V2000
   -1.4289    0.0000    0.0000 C   0  0  0  0  0  0  0  0  0  0  0  0
   -0.7145   -0.4125    0.0000 O   0  0  0  0  0  0  0  0  0  0  0  0
   -0.7145   -1.2375    0.0000 C   0  0  0  0  0  0  0  0  0  0  0  0
    0.0000   -1.6500    0.0000 C   0  0  0  0  0  0  0  0  0  0  0  0
    0.0000   -2.4750    0.0000 C   0  0  0  0  0  0  0  0  0  0  0  0
    0.7145   -2.8875    0.0000 O   0  0  0  0  0  0  0  0  0  0  0  0
    1.4289   -2.4750    0.0000 C   0  0  0  0  0  0  0  0  0  0  0  0
    2.1434   -2.0625    0.0000 F   0  0  0  0  0  0  0  0  0  0  0  0
    1.0164   -1.7605    0.0000 F   0  0  0  0  0  0  0  0  0  0  0  0
    1.8414   -3.1895    0.0000 F   0  0  0  0  0  0  0  0  0  0  0  0
   -0.7145   -2.8875    0.0000 C   0  0  0  0  0  0  0  0  0  0  0  0
   -1.4289   -2.4750    0.0000 C   0  0  0  0  0  0  0  0  0  0  0  0
   -1.4289   -1.6500    0.0000 C   0  0  0  0  0  0  0  0  0  0  0  0
   -2.1434   -2.8875    0.0000 N   0  0  0  0  0  0  0  0  0  0  0  0
   -2.8579   -2.4750    0.0000 C   0  0  0  0  0  0  0  0  0  0  0  0
   -3.5724   -2.8875    0.0000 N   0  0  0  0  0  0  0  0  0  0  0  0
   -4.2868   -2.4750    0.0000 C   0  0  0  0  0  0  0  0  0  0  0  0
   -5.0013   -2.8875    0.0000 C   0  0  0  0  0  0  0  0  0  0  0  0
   -4.2868   -1.6500    0.0000 C   0  0  0  0  0  0  0  0  0  0  0  0
   -5.0013   -1.2375    0.0000 C   0  0  0  0  0  0  0  0  0  0  0  0
   -3.5724   -1.2375    0.0000 C   0  0  0  0  0  0  0  0  0  0  0  0
   -3.5724   -0.4125    0.0000 O   0  0  0  0  0  0  0  0  0  0  0  0
   -2.8579   -1.6500    0.0000 N   0  0  0  0  0  0  0  0  0  0  0  0
   -2.1434   -3.7125    0.0000 C   0  0  0  0  0  0  0  0  0  0  0  0
   -1.4289   -4.1250    0.0000 C   0  0  0  0  0  0  0  0  0  0  0  0
   -1.4289   -4.9500    0.0000 C   0  0  0  0  0  0  0  0  0  0  0  0
   -2.1434   -5.3625    0.0000 C   0  0  0  0  0  0  0  0  0  0  0  0
   -2.8579   -4.9500    0.0000 C   0  0  0  0  0  0  0  0  0  0  0  0
   -3.5724   -5.3625    0.0000 C   0  0  0  0  0  0  0  0  0  0  0  0
   -2.8579   -4.1250    0.0000 C   0  0  0  0  0  0  0  0  0  0  0  0
   -3.5724   -3.7125    0.0000 C   0  0  0  0  0  0  0  0  0  0  0  0
  1  2  1  0  0  0  0
  2  3  1  0  0  0  0
  3  4  2  0  0  0  0
  4  5  1  0  0  0  0
  5  6  1  0  0  0  0
  6  7  1  0  0  0  0
  7  8  1  0  0  0  0
  7  9  1  0  0  0  0
  7 10  1  0  0  0  0
  5 11  2  0  0  0  0
 11 12  1  0  0  0  0
 12 13  2  0  0  0  0
  3 13  1  0  0  0  0
 12 14  1  0  0  0  0
 14 15  1  0  0  0  0
 15 16  2  0  0  0  0
 16 17  1  0  0  0  0
 17 18  1  0  0  0  0
 17 19  2  0  0  0  0
 19 20  1  0  0  0  0
 19 21  1  0  0  0  0
 21 22  2  0  0  0  0
 21 23  1  0  0  0  0
 15 23  1  0  0  0  0
 14 24  1  0  0  0  0
 24 25  2  0  0  0  0
 25 26  1  0  0  0  0
 26 27  2  0  0  0  0
 27 28  1  0  0  0  0
 28 29  1  0  0  0  0
 28 30  2  0  0  0  0
 24 30  1  0  0  0  0
 30 31  1  0  0  0  0
M  END
> <ID>
CPD_3015

$$$$
CPD_3020
  Mrv1822 09091914012D          

 29 32  0  0  0  0            999 V2000
   -2.8579   12.5026    0.0000 C   0  0  0  0  0  0  0  0  0  0  0  0
   -2.1434   12.9151    0.0000 C   0  0  0  0  0  0  0  0  0  0  0  0
   -2.1434   13.7401    0.0000 C   0  0  0  0  0  0  0  0  0  0  0  0
   -1.4289   14.1526    0.0000 C   0  0  0  0  0  0  0  0  0  0  0  0
   -1.4289   14.9776    0.0000 Cl  0  0  0  0  0  0  0  0  0  0  0  0
   -0.7145   13.7401    0.0000 C   0  0  0  0  0  0  0  0  0  0  0  0
   -0.0000   14.1526    0.0000 F   0  0  0  0  0  0  0  0  0  0  0  0
   -0.7145   12.9151    0.0000 C   0  0  0  0  0  0  0  0  0  0  0  0
   -1.4289   12.5026    0.0000 C   0  0  0  0  0  0  0  0  0  0  0  0
   -1.4289   11.6776    0.0000 N   0  0  0  0  0  0  0  0  0  0  0  0
   -0.7145   11.2651    0.0000 C   0  0  0  0  0  0  0  0  0  0  0  0
   -0.7145   10.4401    0.0000 C   0  0  0  0  0  0  0  0  0  0  0  0
   -1.4289   10.0276    0.0000 C   0  0  0  0  0  0  0  0  0  0  0  0
   -1.4289    9.2026    0.0000 C   0  0  0  0  0  0  0  0  0  0  0  0
   -0.7145    8.7901    0.0000 O   0  0  0  0  0  0  0  0  0  0  0  0
   -0.7145    7.9651    0.0000 C   0  0  0  0  0  0  0  0  0  0  0  0
    0.0000    7.5526    0.0000 C   0  0  0  0  0  0  0  0  0  0  0  0
    0.0000    6.7276    0.0000 C   0  0  0  0  0  0  0  0  0  0  0  0
   -0.7145    6.3151    0.0000 C   0  0  0  0  0  0  0  0  0  0  0  0
   -1.4289    6.7276    0.0000 C   0  0  0  0  0  0  0  0  0  0  0  0
   -1.4289    7.5526    0.0000 C   0  0  0  0  0  0  0  0  0  0  0  0
   -0.7145    5.4901    0.0000 C   0  0  0  0  0  0  0  0  0  0  0  0
   -1.4289    5.0776    0.0000 O   0  0  0  0  0  0  0  0  0  0  0  0
   -0.0000    5.0776    0.0000 N   0  0  0  0  0  0  0  0  0  0  0  0
   -0.0000    4.2526    0.0000 C   0  0  0  0  0  0  0  0  0  0  0  0
    0.4125    3.5382    0.0000 C   0  0  0  0  0  0  0  0  0  0  0  0
   -0.4125    3.5382    0.0000 C   0  0  0  0  0  0  0  0  0  0  0  0
   -2.1434   10.4401    0.0000 C   0  0  0  0  0  0  0  0  0  0  0  0
   -2.1434   11.2651    0.0000 C   0  0  0  0  0  0  0  0  0  0  0  0
  1  2  1  0  0  0  0
  2  3  2  0  0  0  0
  3  4  1  0  0  0  0
  4  5  1  0  0  0  0
  4  6  2  0  0  0  0
  6  7  1  0  0  0  0
  6  8  1  0  0  0  0
  8  9  2  0  0  0  0
  2  9  1  0  0  0  0
  9 10  1  0  0  0  0
 10 11  1  0  0  0  0
 11 12  1  0  0  0  0
 12 13  1  0  0  0  0
 13 14  1  0  0  0  0
 14 15  1  0  0  0  0
 15 16  1  0  0  0  0
 16 17  2  0  0  0  0
 17 18  1  0  0  0  0
 18 19  2  0  0  0  0
 19 20  1  0  0  0  0
 20 21  2  0  0  0  0
 16 21  1  0  0  0  0
 19 22  1  0  0  0  0
 22 23  2  0  0  0  0
 22 24  1  0  0  0  0
 24 25  1  0  0  0  0
 25 26  1  0  0  0  0
 26 27  1  0  0  0  0
 25 27  1  0  0  0  0
 13 28  1  0  0  0  0
 28 29  1  0  0  0  0
 10 29  1  0  0  0  0
M  END
> <ID>
CPD_3020

$$$$
CPD_3025
  Mrv1822 09091914012D          

 28 31  0  0  0  0            999 V2000
    4.1801   -0.1848    0.0000 C   0  0  0  0  0  0  0  0  0  0  0  0
    3.4656   -0.5973    0.0000 C   0  0  0  0  0  0  0  0  0  0  0  0
    2.7512   -0.1848    0.0000 O   0  0  0  0  0  0  0  0  0  0  0  0
    3.4656   -1.4223    0.0000 C   0  0  0  0  0  0  0  0  0  0  0  0
    4.1331   -1.9072    0.0000 C   0  0  0  0  0  0  0  0  0  0  0  0
    4.9177   -1.6523    0.0000 N   0  0  0  0  0  0  0  0  0  0  0  0
    5.5308   -2.2043    0.0000 C   0  0  0  0  0  0  0  0  0  0  0  0
    6.3154   -1.9494    0.0000 C   0  0  0  0  0  0  0  0  0  0  0  0
    6.9285   -2.5014    0.0000 C   0  0  0  0  0  0  0  0  0  0  0  0
    6.7570   -3.3084    0.0000 C   0  0  0  0  0  0  0  0  0  0  0  0
    5.9724   -3.5633    0.0000 C   0  0  0  0  0  0  0  0  0  0  0  0
    5.3593   -3.0113    0.0000 N   0  0  0  0  0  0  0  0  0  0  0  0
    5.8008   -4.3703    0.0000 C   0  0  0  0  0  0  0  0  0  0  0  0
    6.4139   -4.9223    0.0000 C   0  0  0  0  0  0  0  0  0  0  0  0
    6.2424   -5.7293    0.0000 C   0  0  0  0  0  0  0  0  0  0  0  0
    5.4578   -5.9843    0.0000 C   0  0  0  0  0  0  0  0  0  0  0  0
    4.8447   -5.4322    0.0000 C   0  0  0  0  0  0  0  0  0  0  0  0
    5.0162   -4.6253    0.0000 C   0  0  0  0  0  0  0  0  0  0  0  0
    6.4870   -1.1424    0.0000 C   0  0  0  0  0  0  0  0  0  0  0  0
    5.9349   -0.5293    0.0000 N   0  0  0  0  0  0  0  0  0  0  0  0
    6.3474    0.1851    0.0000 O   0  0  0  0  0  0  0  0  0  0  0  0
    7.1544    0.0136    0.0000 C   0  0  0  0  0  0  0  0  0  0  0  0
    7.7675    0.5656    0.0000 C   0  0  0  0  0  0  0  0  0  0  0  0
    7.2406   -0.8069    0.0000 N   0  0  0  0  0  0  0  0  0  0  0  0
    3.8781   -2.6919    0.0000 N   0  0  0  0  0  0  0  0  0  0  0  0
    3.0531   -2.6919    0.0000 N   0  0  0  0  0  0  0  0  0  0  0  0
    2.7982   -1.9072    0.0000 C   0  0  0  0  0  0  0  0  0  0  0  0
    2.0136   -1.6523    0.0000 C   0  0  0  0  0  0  0  0  0  0  0  0
  1  2  1  0  0  0  0
  2  3  2  0  0  0  0
  2  4  1  0  0  0  0
  4  5  2  0  0  0  0
  5  6  1  0  0  0  0
  6  7  1  0  0  0  0
  7  8  2  0  0  0  0
  8  9  1  0  0  0  0
  9 10  2  0  0  0  0
 10 11  1  0  0  0  0
 11 12  2  0  0  0  0
  7 12  1  0  0  0  0
 11 13  1  0  0  0  0
 13 14  2  0  0  0  0
 14 15  1  0  0  0  0
 15 16  2  0  0  0  0
 16 17  1  0  0  0  0
 17 18  2  0  0  0  0
 13 18  1  0  0  0  0
  8 19  1  0  0  0  0
 19 20  2  0  0  0  0
 20 21  1  0  0  0  0
 21 22  1  0  0  0  0
 22 23  1  0  0  0  0
 22 24  2  0  0  0  0
 19 24  1  0  0  0  0
  5 25  1  0  0  0  0
 25 26  1  0  0  0  0
 26 27  2  0  0  0  0
  4 27  1  0  0  0  0
 27 28  1  0  0  0  0
M  END
> <ID>
CPD_3025

$$$$
CPD_3030
  Mrv1822 09091914012D          

 24 25  0  0  0  0            999 V2000
   -0.6965   -0.2349    0.0000 C   0  0  0  0  0  0  0  0  0  0  0  0
    0.0179   -0.6474    0.0000 C   0  0  0  0  0  0  0  0  0  0  0  0
    0.7324   -0.2349    0.0000 O   0  0  0  0  0  0  0  0  0  0  0  0
    0.0179   -1.4724    0.0000 C   0  0  0  0  0  0  0  0  0  0  0  0
   -0.6495   -1.9573    0.0000 C   0  0  0  0  0  0  0  0  0  0  0  0
   -1.4341   -1.7024    0.0000 N   0  0  0  0  0  0  0  0  0  0  0  0
   -2.0472   -2.2544    0.0000 C   0  0  0  0  0  0  0  0  0  0  0  0
   -1.9610   -3.0749    0.0000 N   0  0  0  0  0  0  0  0  0  0  0  0
   -2.7147   -3.4105    0.0000 C   0  0  0  0  0  0  0  0  0  0  0  0
   -3.2667   -2.7974    0.0000 C   0  0  0  0  0  0  0  0  0  0  0  0
   -4.0872   -2.8836    0.0000 C   0  0  0  0  0  0  0  0  0  0  0  0
   -4.5721   -2.2162    0.0000 N   0  0  0  0  0  0  0  0  0  0  0  0
   -5.3926   -2.3024    0.0000 C   0  0  0  0  0  0  0  0  0  0  0  0
   -5.7281   -3.0561    0.0000 O   0  0  0  0  0  0  0  0  0  0  0  0
   -5.8775   -1.6350    0.0000 O   0  0  0  0  0  0  0  0  0  0  0  0
   -5.5419   -0.8813    0.0000 C   0  0  0  0  0  0  0  0  0  0  0  0
   -5.2064   -0.1276    0.0000 C   0  0  0  0  0  0  0  0  0  0  0  0
   -4.7883   -1.2168    0.0000 C   0  0  0  0  0  0  0  0  0  0  0  0
   -6.2956   -0.5457    0.0000 C   0  0  0  0  0  0  0  0  0  0  0  0
   -2.8542   -2.0829    0.0000 S   0  0  0  0  0  0  0  0  0  0  0  0
   -0.3946   -2.7419    0.0000 N   0  0  0  0  0  0  0  0  0  0  0  0
    0.4304   -2.7419    0.0000 N   0  0  0  0  0  0  0  0  0  0  0  0
    0.6854   -1.9573    0.0000 C   0  0  0  0  0  0  0  0  0  0  0  0
    1.4700   -1.7024    0.0000 C   0  0  0  0  0  0  0  0  0  0  0  0
  1  2  1  0  0  0  0
  2  3  2  0  0  0  0
  2  4  1  0  0  0  0
  4  5  2  0  0  0  0
  5  6  1  0  0  0  0
  6  7  1  0  0  0  0
  7  8  2  0  0  0  0
  8  9  1  0  0  0  0
  9 10  2  0  0  0  0
 10 11  1  0  0  0  0
 11 12  1  0  0  0  0
 12 13  1  0  0  0  0
 13 14  2  0  0  0  0
 13 15  1  0  0  0  0
 15 16  1  0  0  0  0
 16 17  1  0  0  0  0
 16 18  1  0  0  0  0
 16 19  1  0  0  0  0
 10 20  1  0  0  0  0
  7 20  1  0  0  0  0
  5 21  1  0  0  0  0
 21 22  1  0  0  0  0
 22 23  2  0  0  0  0
  4 23  1  0  0  0  0
 23 24  1  0  0  0  0
M  END
> <ID>
CPD_3030

$$$$
CPD_3035
  Mrv1822 09091914012D          

 26 28  0  0  0  0            999 V2000
    4.1801   -0.0616    0.0000 C   0  0  0  0  0  0  0  0  0  0  0  0
    3.4656   -0.4741    0.0000 C   0  0  0  0  0  0  0  0  0  0  0  0
    2.7512   -0.0616    0.0000 O   0  0  0  0  0  0  0  0  0  0  0  0
    3.4656   -1.2991    0.0000 C   0  0  0  0  0  0  0  0  0  0  0  0
    2.7982   -1.7840    0.0000 C   0  0  0  0  0  0  0  0  0  0  0  0
    2.0136   -1.5291    0.0000 N   0  0  0  0  0  0  0  0  0  0  0  0
    1.4005   -2.0811    0.0000 C   0  0  0  0  0  0  0  0  0  0  0  0
    1.5720   -2.8881    0.0000 C   0  0  0  0  0  0  0  0  0  0  0  0
    0.9589   -3.4401    0.0000 C   0  0  0  0  0  0  0  0  0  0  0  0
    1.1305   -4.2471    0.0000 C   0  0  0  0  0  0  0  0  0  0  0  0
    0.1743   -3.1852    0.0000 C   0  0  0  0  0  0  0  0  0  0  0  0
    0.0028   -2.3782    0.0000 C   0  0  0  0  0  0  0  0  0  0  0  0
    0.6159   -1.8262    0.0000 C   0  0  0  0  0  0  0  0  0  0  0  0
    0.4443   -1.0192    0.0000 C   0  0  0  0  0  0  0  0  0  0  0  0
   -0.3403   -0.7643    0.0000 C   0  0  0  0  0  0  0  0  0  0  0  0
   -0.5118    0.0427    0.0000 C   0  0  0  0  0  0  0  0  0  0  0  0
    0.1013    0.5947    0.0000 C   0  0  0  0  0  0  0  0  0  0  0  0
    0.8859    0.3398    0.0000 C   0  0  0  0  0  0  0  0  0  0  0  0
    1.0574   -0.4672    0.0000 C   0  0  0  0  0  0  0  0  0  0  0  0
    1.4990    0.8918    0.0000 C   0  0  0  0  0  0  0  0  0  0  0  0
    1.3275    1.6988    0.0000 O   0  0  0  0  0  0  0  0  0  0  0  0
    2.2836    0.6369    0.0000 O   0  0  0  0  0  0  0  0  0  0  0  0
    3.0531   -2.5687    0.0000 N   0  0  0  0  0  0  0  0  0  0  0  0
    3.8781   -2.5687    0.0000 N   0  0  0  0  0  0  0  0  0  0  0  0
    4.1331   -1.7840    0.0000 C   0  0  0  0  0  0  0  0  0  0  0  0
    4.9177   -1.5291    0.0000 C   0  0  0  0  0  0  0  0  0  0  0  0
  1  2  1  0  0  0  0
  2  3  2  0  0  0  0
  2  4  1  0  0  0  0
  4  5  2  0  0  0  0
  5  6  1  0  0  0  0
  6  7  1  0  0  0  0
  7  8  2  0  0  0  0
  8  9  1  0  0  0  0
  9 10  1  0  0  0  0
  9 11  2  0  0  0  0
 11 12  1  0  0  0  0
 12 13  2  0  0  0  0
  7 13  1  0  0  0  0
 13 14  1  0  0  0  0
 14 15  2  0  0  0  0
 15 16  1  0  0  0  0
 16 17  2  0  0  0  0
 17 18  1  0  0  0  0
 18 19  2  0  0  0  0
 14 19  1  0  0  0  0
 18 20  1  0  0  0  0
 20 21  1  0  0  0  0
 20 22  2  0  0  0  0
  5 23  1  0  0  0  0
 23 24  1  0  0  0  0
 24 25  2  0  0  0  0
  4 25  1  0  0  0  0
 25 26  1  0  0  0  0
M  END
> <ID>
CPD_3035

$$$$
CPD_3040
  Mrv1822 09091914012D          

 27 29  0  0  0  0            999 V2000
    0.7145   -2.8875    0.0000 C   0  0  0  0  0  0  0  0  0  0  0  0
    0.7145   -3.7125    0.0000 C   0  0  0  0  0  0  0  0  0  0  0  0
    0.0000   -4.1250    0.0000 C   0  0  0  0  0  0  0  0  0  0  0  0
   -0.7145   -3.7125    0.0000 N   0  0  0  0  0  0  0  0  0  0  0  0
   -0.7145   -2.8875    0.0000 C   0  0  0  0  0  0  0  0  0  0  0  0
   -1.4289   -2.4750    0.0000 C   0  0  0  0  0  0  0  0  0  0  0  0
   -1.4289   -1.6500    0.0000 C   0  0  0  0  0  0  0  0  0  0  0  0
   -2.1434   -1.2375    0.0000 O   0  0  0  0  0  0  0  0  0  0  0  0
   -0.7145   -1.2375    0.0000 N   0  0  0  0  0  0  0  0  0  0  0  0
   -0.0000   -1.6500    0.0000 C   0  0  0  0  0  0  0  0  0  0  0  0
    0.7145   -1.2375    0.0000 N   0  0  0  0  0  0  0  0  0  0  0  0
    0.7145   -0.4125    0.0000 C   0  0  0  0  0  0  0  0  0  0  0  0
   -0.0000   -0.0000    0.0000 C   0  0  0  0  0  0  0  0  0  0  0  0
   -0.0000    0.8250    0.0000 C   0  0  0  0  0  0  0  0  0  0  0  0
    0.7145    1.2375    0.0000 C   0  0  0  0  0  0  0  0  0  0  0  0
    1.4289    0.8250    0.0000 C   0  0  0  0  0  0  0  0  0  0  0  0
    1.4289    0.0000    0.0000 C   0  0  0  0  0  0  0  0  0  0  0  0
   -0.0000   -2.4750    0.0000 N   0  0  0  0  0  0  0  0  0  0  0  0
    0.0000   -4.9500    0.0000 C   0  0  0  0  0  0  0  0  0  0  0  0
    0.7145   -5.3625    0.0000 C   0  0  0  0  0  0  0  0  0  0  0  0
    1.4289   -4.9500    0.0000 C   0  0  0  0  0  0  0  0  0  0  0  0
    2.1434   -5.3625    0.0000 O   0  0  0  0  0  0  0  0  0  0  0  0
    1.4289   -4.1250    0.0000 C   0  0  0  0  0  0  0  0  0  0  0  0
   -0.7145   -5.3625    0.0000 C   0  0  0  0  0  0  0  0  0  0  0  0
   -1.4289   -5.7750    0.0000 F   0  0  0  0  0  0  0  0  0  0  0  0
   -1.1270   -4.6480    0.0000 F   0  0  0  0  0  0  0  0  0  0  0  0
   -0.3020   -6.0770    0.0000 F   0  0  0  0  0  0  0  0  0  0  0  0
  1  2  1  0  0  0  0
  2  3  2  0  0  0  0
  3  4  1  0  0  0  0
  4  5  1  0  0  0  0
  5  6  2  0  0  0  0
  6  7  1  0  0  0  0
  7  8  2  0  0  0  0
  7  9  1  0  0  0  0
  9 10  1  0  0  0  0
 10 11  1  0  0  0  0
 11 12  1  0  0  0  0
 12 13  1  0  0  0  0
 13 14  1  0  0  0  0
 14 15  1  0  0  0  0
 15 16  1  0  0  0  0
 16 17  1  0  0  0  0
 12 17  1  0  0  0  0
 10 18  2  0  0  0  0
  5 18  1  0  0  0  0
  3 19  1  0  0  0  0
 19 20  2  0  0  0  0
 20 21  1  0  0  0  0
 21 22  1  0  0  0  0
 21 23  2  0  0  0  0
  2 23  1  0  0  0  0
 19 24  1  0  0  0  0
 24 25  1  0  0  0  0
 24 26  1  0  0  0  0
 24 27  1  0  0  0  0
M  END
> <ID>
CPD_3040

$$$$
CPD_3045
  Mrv1822 09091914012D          

 24 26  0  0  0  0            999 V2000
    4.2868    0.0000    0.0000 F   0  0  0  0  0  0  0  0  0  0  0  0
    5.0013   -0.4125    0.0000 C   0  0  0  0  0  0  0  0  0  0  0  0
    5.7158    0.0000    0.0000 F   0  0  0  0  0  0  0  0  0  0  0  0
    5.0013   -1.2375    0.0000 C   0  0  0  0  0  0  0  0  0  0  0  0
    4.2868   -1.6500    0.0000 C   0  0  0  0  0  0  0  0  0  0  0  0
    3.5724   -1.2375    0.0000 N   0  0  0  0  0  0  0  0  0  0  0  0
    2.8579   -1.6500    0.0000 C   0  0  0  0  0  0  0  0  0  0  0  0
    2.8579   -2.4750    0.0000 C   0  0  0  0  0  0  0  0  0  0  0  0
    2.1434   -2.8875    0.0000 C   0  0  0  0  0  0  0  0  0  0  0  0
    2.1434   -3.7125    0.0000 O   0  0  0  0  0  0  0  0  0  0  0  0
    1.4289   -2.4750    0.0000 N   0  0  0  0  0  0  0  0  0  0  0  0
    1.4289   -1.6500    0.0000 C   0  0  0  0  0  0  0  0  0  0  0  0
    0.7145   -1.2375    0.0000 N   0  0  0  0  0  0  0  0  0  0  0  0
    0.7145   -0.4125    0.0000 C   0  0  0  0  0  0  0  0  0  0  0  0
   -0.0000   -0.0000    0.0000 C   0  0  0  0  0  0  0  0  0  0  0  0
   -0.0000    0.8250    0.0000 C   0  0  0  0  0  0  0  0  0  0  0  0
    0.7145    1.2375    0.0000 C   0  0  0  0  0  0  0  0  0  0  0  0
    1.4289    0.8250    0.0000 C   0  0  0  0  0  0  0  0  0  0  0  0
    1.4289   -0.0000    0.0000 C   0  0  0  0  0  0  0  0  0  0  0  0
    2.1434   -1.2375    0.0000 N   0  0  0  0  0  0  0  0  0  0  0  0
    4.2868   -2.4750    0.0000 C   0  0  0  0  0  0  0  0  0  0  0  0
    5.0013   -2.8875    0.0000 C   0  0  0  0  0  0  0  0  0  0  0  0
    5.7158   -2.4750    0.0000 N   0  0  0  0  0  0  0  0  0  0  0  0
    5.7158   -1.6500    0.0000 C   0  0  0  0  0  0  0  0  0  0  0  0
  1  2  1  0  0  0  0
  2  3  1  0  0  0  0
  2  4  1  0  0  0  0
  4  5  2  0  0  0  0
  5  6  1  0  0  0  0
  6  7  1  0  0  0  0
  7  8  2  0  0  0  0
  8  9  1  0  0  0  0
  9 10  2  0  0  0  0
  9 11  1  0  0  0  0
 11 12  1  0  0  0  0
 12 13  1  0  0  0  0
 13 14  1  0  0  0  0
 14 15  1  0  0  0  0
 15 16  1  0  0  0  0
 16 17  1  0  0  0  0
 17 18  1  0  0  0  0
 18 19  1  0  0  0  0
 14 19  1  0  0  0  0
 12 20  2  0  0  0  0
  7 20  1  0  0  0  0
  5 21  1  0  0  0  0
 21 22  2  0  0  0  0
 22 23  1  0  0  0  0
 23 24  2  0  0  0  0
  4 24  1  0  0  0  0
M  END
> <ID>
CPD_3045

$$$$
CPD_3050
  Mrv1822 09091914012D          

 40 46  0  0  0  0            999 V2000
   -1.7629    5.1326    0.0000 C   0  0  0  0  0  0  0  0  0  0  0  0
   -2.3149    4.5195    0.0000 N   0  0  0  0  0  0  0  0  0  0  0  0
   -3.1354    4.6057    0.0000 N   0  0  0  0  0  0  0  0  0  0  0  0
   -3.4710    3.8520    0.0000 C   0  0  0  0  0  0  0  0  0  0  0  0
   -4.2780    3.6805    0.0000 C   0  0  0  0  0  0  0  0  0  0  0  0
   -4.6135    2.9268    0.0000 N   0  0  0  0  0  0  0  0  0  0  0  0
   -5.4340    3.0131    0.0000 C   0  0  0  0  0  0  0  0  0  0  0  0
   -5.6055    3.8200    0.0000 N   0  0  0  0  0  0  0  0  0  0  0  0
   -4.8910    4.2325    0.0000 O   0  0  0  0  0  0  0  0  0  0  0  0
   -5.9860    2.4000    0.0000 C   0  0  0  0  0  0  0  0  0  0  0  0
   -5.7311    1.6154    0.0000 C   0  0  0  0  0  0  0  0  0  0  0  0
   -6.2831    1.0023    0.0000 C   0  0  0  0  0  0  0  0  0  0  0  0
   -6.0282    0.2176    0.0000 F   0  0  0  0  0  0  0  0  0  0  0  0
   -7.0901    1.1738    0.0000 C   0  0  0  0  0  0  0  0  0  0  0  0
   -7.3450    1.9584    0.0000 C   0  0  0  0  0  0  0  0  0  0  0  0
   -6.7930    2.5715    0.0000 C   0  0  0  0  0  0  0  0  0  0  0  0
   -2.8579    3.3000    0.0000 C   0  0  0  0  0  0  0  0  0  0  0  0
   -2.1434    3.7125    0.0000 C   0  0  0  0  0  0  0  0  0  0  0  0
   -1.4289    3.3000    0.0000 C   0  0  0  0  0  0  0  0  0  0  0  0
   -1.4289    2.4750    0.0000 C   0  0  0  0  0  0  0  0  0  0  0  0
   -2.1434    2.0625    0.0000 N   0  0  0  0  0  0  0  0  0  0  0  0
   -2.8579    2.4750    0.0000 C   0  0  0  0  0  0  0  0  0  0  0  0
   -2.1434    1.2375    0.0000 C   0  0  0  0  0  0  0  0  0  0  0  0
   -1.4289    0.8250    0.0000 C   0  0  0  0  0  0  0  0  0  0  0  0
   -1.4289    0.0000    0.0000 C   0  0  0  0  0  0  0  0  0  0  0  0
   -2.1434   -0.4125    0.0000 C   0  0  0  0  0  0  0  0  0  0  0  0
   -2.8579    0.0000    0.0000 C   0  0  0  0  0  0  0  0  0  0  0  0
   -2.8579    0.8250    0.0000 C   0  0  0  0  0  0  0  0  0  0  0  0
   -0.7145   -0.4125    0.0000 C   0  0  0  0  0  0  0  0  0  0  0  0
   -0.7145   -1.2375    0.0000 C   0  0  0  0  0  0  0  0  0  0  0  0
    0.0000   -1.6500    0.0000 C   0  0  0  0  0  0  0  0  0  0  0  0
    0.0000   -2.4750    0.0000 O   0  0  0  0  0  0  0  0  0  0  0  0
    0.7145   -1.2375    0.0000 C   0  0  0  0  0  0  0  0  0  0  0  0
    0.7145   -0.4125    0.0000 C   0  0  0  0  0  0  0  0  0  0  0  0
    0.0000   -0.0000    0.0000 C   0  0  0  0  0  0  0  0  0  0  0  0
    1.4289   -0.0000    0.0000 N   0  0  0  0  0  0  0  0  0  0  0  0
    2.1434   -0.4125    0.0000 C   0  0  0  0  0  0  0  0  0  0  0  0
    2.8579   -0.0000    0.0000 N   0  0  0  0  0  0  0  0  0  0  0  0
    2.1434   -1.2375    0.0000 N   0  0  0  0  0  0  0  0  0  0  0  0
    1.4289   -1.6500    0.0000 C   0  0  0  0  0  0  0  0  0  0  0  0
  1  2  1  0  0  0  0
  2  3  1  0  0  0  0
  3  4  2  0  0  0  0
  4  5  1  0  0  0  0
  5  6  2  0  0  0  0
  6  7  1  0  0  0  0
  7  8  2  0  0  0  0
  8  9  1  0  0  0  0
  5  9  1  0  0  0  0
  7 10  1  0  0  0  0
 10 11  2  0  0  0  0
 11 12  1  0  0  0  0
 12 13  1  0  0  0  0
 12 14  2  0  0  0  0
 14 15  1  0  0  0  0
 15 16  2  0  0  0  0
 10 16  1  0  0  0  0
  4 17  1  0  0  0  0
 17 18  2  0  0  0  0
  2 18  1  0  0  0  0
 18 19  1  0  0  0  0
 19 20  1  0  0  0  0
 20 21  1  0  0  0  0
 21 22  1  0  0  0  0
 17 22  1  0  0  0  0
 21 23  1  0  0  0  0
 23 24  2  0  0  0  0
 24 25  1  0  0  0  0
 25 26  2  0  0  0  0
 26 27  1  0  0  0  0
 27 28  2  0  0  0  0
 23 28  1  0  0  0  0
 25 29  1  0  0  0  0
 29 30  1  0  0  0  0
 30 31  1  0  0  0  0
 31 32  2  0  0  0  0
 31 33  1  0  0  0  0
 33 34  2  0  0  0  0
 34 35  1  0  0  0  0
 29 35  1  0  0  0  0
 34 36  1  0  0  0  0
 36 37  2  0  0  0  0
 37 38  1  0  0  0  0
 37 39  1  0  0  0  0
 39 40  2  0  0  0  0
 33 40  1  0  0  0  0
M  END
> <ID>
CPD_3050

$$$$
CPD_3055
  Mrv1822 09091914012D          

 38 41  0  0  0  0            999 V2000
    0.7145   -6.1875    0.0000 C   0  0  0  0  0  0  0  0  0  0  0  0
    1.4289   -6.6000    0.0000 O   0  0  0  0  0  0  0  0  0  0  0  0
    1.4289   -7.4250    0.0000 C   0  0  0  0  0  0  0  0  0  0  0  0
    0.7145   -7.8375    0.0000 C   0  0  0  0  0  0  0  0  0  0  0  0
    0.7145   -8.6625    0.0000 C   0  0  0  0  0  0  0  0  0  0  0  0
    0.0000   -9.0750    0.0000 C   0  0  0  0  0  0  0  0  0  0  0  0
    0.0000   -9.9000    0.0000 O   0  0  0  0  0  0  0  0  0  0  0  0
   -0.7145   -8.6625    0.0000 O   0  0  0  0  0  0  0  0  0  0  0  0
    1.4289   -9.0750    0.0000 C   0  0  0  0  0  0  0  0  0  0  0  0
    2.1434   -8.6625    0.0000 C   0  0  0  0  0  0  0  0  0  0  0  0
    2.1434   -7.8375    0.0000 C   0  0  0  0  0  0  0  0  0  0  0  0
    1.4289   -9.9000    0.0000 C   0  0  0  0  0  0  0  0  0  0  0  0
    2.1434  -10.3125    0.0000 C   0  0  0  0  0  0  0  0  0  0  0  0
    2.8579   -9.9000    0.0000 Cl  0  0  0  0  0  0  0  0  0  0  0  0
    2.1434  -11.1375    0.0000 C   0  0  0  0  0  0  0  0  0  0  0  0
    1.4289  -11.5500    0.0000 C   0  0  0  0  0  0  0  0  0  0  0  0
    0.7145  -11.1375    0.0000 C   0  0  0  0  0  0  0  0  0  0  0  0
    0.7145  -10.3125    0.0000 C   0  0  0  0  0  0  0  0  0  0  0  0
    1.4289  -12.3750    0.0000 N   0  0  0  0  0  0  0  0  0  0  0  0
    2.1434  -12.7875    0.0000 C   0  0  0  0  0  0  0  0  0  0  0  0
    2.1434  -13.6125    0.0000 C   0  0  0  0  0  0  0  0  0  0  0  0
    1.4289  -14.0250    0.0000 C   0  0  0  0  0  0  0  0  0  0  0  0
    1.4289  -14.8500    0.0000 C   0  0  0  0  0  0  0  0  0  0  0  0
    2.1434  -15.2625    0.0000 O   0  0  0  0  0  0  0  0  0  0  0  0
    2.1434  -16.0875    0.0000 C   0  0  0  0  0  0  0  0  0  0  0  0
    2.8579  -16.5000    0.0000 C   0  0  0  0  0  0  0  0  0  0  0  0
    2.8579  -17.3250    0.0000 C   0  0  0  0  0  0  0  0  0  0  0  0
    2.1434  -17.7375    0.0000 C   0  0  0  0  0  0  0  0  0  0  0  0
    1.4289  -17.3250    0.0000 C   0  0  0  0  0  0  0  0  0  0  0  0
    1.4289  -16.5000    0.0000 C   0  0  0  0  0  0  0  0  0  0  0  0
    2.1434  -18.5625    0.0000 C   0  0  0  0  0  0  0  0  0  0  0  0
    1.4289  -18.9750    0.0000 O   0  0  0  0  0  0  0  0  0  0  0  0
    2.8579  -18.9750    0.0000 N   0  0  0  0  0  0  0  0  0  0  0  0
    2.8579  -19.8000    0.0000 C   0  0  0  0  0  0  0  0  0  0  0  0
    3.5724  -20.2125    0.0000 C   0  0  0  0  0  0  0  0  0  0  0  0
    2.1434  -20.2125    0.0000 C   0  0  0  0  0  0  0  0  0  0  0  0
    0.7145  -13.6125    0.0000 C   0  0  0  0  0  0  0  0  0  0  0  0
    0.7145  -12.7875    0.0000 C   0  0  0  0  0  0  0  0  0  0  0  0
  1  2  1  0  0  0  0
  2  3  1  0  0  0  0
  3  4  2  0  0  0  0
  4  5  1  0  0  0  0
  5  6  1  0  0  0  0
  6  7  1  0  0  0  0
  6  8  2  0  0  0  0
  5  9  2  0  0  0  0
  9 10  1  0  0  0  0
 10 11  2  0  0  0  0
  3 11  1  0  0  0  0
  9 12  1  0  0  0  0
 12 13  2  0  0  0  0
 13 14  1  0  0  0  0
 13 15  1  0  0  0  0
 15 16  2  0  0  0  0
 16 17  1  0  0  0  0
 17 18  2  0  0  0  0
 12 18  1  0  0  0  0
 16 19  1  0  0  0  0
 19 20  1  0  0  0  0
 20 21  1  0  0  0  0
 21 22  1  0  0  0  0
 22 23  1  0  0  0  0
 23 24  1  0  0  0  0
 24 25  1  0  0  0  0
 25 26  2  0  0  0  0
 26 27  1  0  0  0  0
 27 28  2  0  0  0  0
 28 29  1  0  0  0  0
 29 30  2  0  0  0  0
 25 30  1  0  0  0  0
 28 31  1  0  0  0  0
 31 32  2  0  0  0  0
 31 33  1  0  0  0  0
 33 34  1  0  0  0  0
 34 35  1  0  0  0  0
 34 36  1  0  0  0  0
 22 37  1  0  0  0  0
 37 38  1  0  0  0  0
 19 38  1  0  0  0  0
M  END
> <ID>
CPD_3055

$$$$
CPD_3060
  Mrv1822 09091914012D          

 35 38  0  0  0  0            999 V2000
    8.5737   -2.4750    0.0000 C   0  0  0  0  0  0  0  0  0  0  0  0
    7.8592   -2.8875    0.0000 C   0  0  0  0  0  0  0  0  0  0  0  0
    7.8592   -3.7125    0.0000 C   0  0  0  0  0  0  0  0  0  0  0  0
    7.1447   -2.4750    0.0000 N   0  0  0  0  0  0  0  0  0  0  0  0
    6.4302   -2.8875    0.0000 C   0  0  0  0  0  0  0  0  0  0  0  0
    5.7158   -2.4750    0.0000 O   0  0  0  0  0  0  0  0  0  0  0  0
    6.4302   -3.7125    0.0000 C   0  0  0  0  0  0  0  0  0  0  0  0
    7.1447   -4.1250    0.0000 C   0  0  0  0  0  0  0  0  0  0  0  0
    7.1447   -4.9500    0.0000 C   0  0  0  0  0  0  0  0  0  0  0  0
    6.4302   -5.3625    0.0000 C   0  0  0  0  0  0  0  0  0  0  0  0
    6.4302   -6.1875    0.0000 O   0  0  0  0  0  0  0  0  0  0  0  0
    7.1447   -6.6000    0.0000 C   0  0  0  0  0  0  0  0  0  0  0  0
    7.1447   -7.4250    0.0000 C   0  0  0  0  0  0  0  0  0  0  0  0
    7.8592   -7.8375    0.0000 C   0  0  0  0  0  0  0  0  0  0  0  0
    7.8592   -8.6625    0.0000 C   0  0  0  0  0  0  0  0  0  0  0  0
    7.1447   -9.0750    0.0000 N   0  0  0  0  0  0  0  0  0  0  0  0
    6.4302   -8.6625    0.0000 C   0  0  0  0  0  0  0  0  0  0  0  0
    6.4302   -7.8375    0.0000 C   0  0  0  0  0  0  0  0  0  0  0  0
    7.1447   -9.9000    0.0000 C   0  0  0  0  0  0  0  0  0  0  0  0
    7.8592  -10.3125    0.0000 C   0  0  0  0  0  0  0  0  0  0  0  0
    7.8592  -11.1375    0.0000 C   0  0  0  0  0  0  0  0  0  0  0  0
    8.5737  -11.5500    0.0000 F   0  0  0  0  0  0  0  0  0  0  0  0
    7.1447  -11.5500    0.0000 C   0  0  0  0  0  0  0  0  0  0  0  0
    6.4302  -11.1375    0.0000 C   0  0  0  0  0  0  0  0  0  0  0  0
    6.4302  -10.3125    0.0000 C   0  0  0  0  0  0  0  0  0  0  0  0
    5.7158  -11.5500    0.0000 C   0  0  0  0  0  0  0  0  0  0  0  0
    5.7158  -12.3750    0.0000 C   0  0  0  0  0  0  0  0  0  0  0  0
    5.0013  -12.7875    0.0000 C   0  0  0  0  0  0  0  0  0  0  0  0
    4.2868  -12.3750    0.0000 C   0  0  0  0  0  0  0  0  0  0  0  0
    4.2868  -11.5500    0.0000 C   0  0  0  0  0  0  0  0  0  0  0  0
    5.0013  -11.1375    0.0000 C   0  0  0  0  0  0  0  0  0  0  0  0
    3.5724  -12.7875    0.0000 C   0  0  0  0  0  0  0  0  0  0  0  0
    2.8579  -13.2000    0.0000 N   0  0  0  0  0  0  0  0  0  0  0  0
    5.7158   -4.9500    0.0000 C   0  0  0  0  0  0  0  0  0  0  0  0
    5.7158   -4.1250    0.0000 C   0  0  0  0  0  0  0  0  0  0  0  0
  1  2  1  0  0  0  0
  2  3  1  0  0  0  0
  2  4  1  0  0  0  0
  4  5  1  0  0  0  0
  5  6  2  0  0  0  0
  5  7  1  0  0  0  0
  7  8  2  0  0  0  0
  8  9  1  0  0  0  0
  9 10  2  0  0  0  0
 10 11  1  0  0  0  0
 11 12  1  0  0  0  0
 12 13  1  0  0  0  0
 13 14  1  0  0  0  0
 14 15  1  0  0  0  0
 15 16  1  0  0  0  0
 16 17  1  0  0  0  0
 17 18  1  0  0  0  0
 13 18  1  0  0  0  0
 16 19  1  0  0  0  0
 19 20  2  0  0  0  0
 20 21  1  0  0  0  0
 21 22  1  0  0  0  0
 21 23  2  0  0  0  0
 23 24  1  0  0  0  0
 24 25  2  0  0  0  0
 19 25  1  0  0  0  0
 24 26  1  0  0  0  0
 26 27  2  0  0  0  0
 27 28  1  0  0  0  0
 28 29  2  0  0  0  0
 29 30  1  0  0  0  0
 30 31  2  0  0  0  0
 26 31  1  0  0  0  0
 29 32  1  0  0  0  0
 32 33  3  0  0  0  0
 10 34  1  0  0  0  0
 34 35  2  0  0  0  0
  7 35  1  0  0  0  0
M  END
> <ID>
CPD_3060

$$$$
CPD_3065
  Mrv1822 09091914012D          

 25 29  0  0  0  0            999 V2000
   -0.3984    0.7541    0.0000 C   0  0  0  0  0  0  0  0  0  0  0  0
   -0.1435   -0.0305    0.0000 N   0  0  0  0  0  0  0  0  0  0  0  0
   -0.6284   -0.6979    0.0000 N   0  0  0  0  0  0  0  0  0  0  0  0
   -0.1435   -1.3654    0.0000 C   0  0  0  0  0  0  0  0  0  0  0  0
   -0.3984   -2.1500    0.0000 C   0  0  0  0  0  0  0  0  0  0  0  0
    0.0865   -2.8174    0.0000 N   0  0  0  0  0  0  0  0  0  0  0  0
   -0.3984   -3.4849    0.0000 C   0  0  0  0  0  0  0  0  0  0  0  0
   -1.1831   -3.2299    0.0000 N   0  0  0  0  0  0  0  0  0  0  0  0
   -1.1831   -2.4049    0.0000 O   0  0  0  0  0  0  0  0  0  0  0  0
   -0.1435   -4.2695    0.0000 C   0  0  0  0  0  0  0  0  0  0  0  0
    0.4696   -4.8215    0.0000 C   0  0  0  0  0  0  0  0  0  0  0  0
   -0.3150   -5.0765    0.0000 C   0  0  0  0  0  0  0  0  0  0  0  0
    0.6411   -1.1104    0.0000 C   0  0  0  0  0  0  0  0  0  0  0  0
    0.6411   -0.2854    0.0000 C   0  0  0  0  0  0  0  0  0  0  0  0
    1.3556    0.1271    0.0000 C   0  0  0  0  0  0  0  0  0  0  0  0
    2.0701   -0.2854    0.0000 C   0  0  0  0  0  0  0  0  0  0  0  0
    2.0701   -1.1104    0.0000 N   0  0  0  0  0  0  0  0  0  0  0  0
    1.3556   -1.5229    0.0000 C   0  0  0  0  0  0  0  0  0  0  0  0
    2.7845   -1.5229    0.0000 C   0  0  0  0  0  0  0  0  0  0  0  0
    3.4990   -1.1104    0.0000 C   0  0  0  0  0  0  0  0  0  0  0  0
    3.4990   -0.2854    0.0000 N   0  0  0  0  0  0  0  0  0  0  0  0
    4.2135   -1.5229    0.0000 C   0  0  0  0  0  0  0  0  0  0  0  0
    4.2135   -2.3479    0.0000 C   0  0  0  0  0  0  0  0  0  0  0  0
    3.4990   -2.7604    0.0000 C   0  0  0  0  0  0  0  0  0  0  0  0
    2.7845   -2.3479    0.0000 C   0  0  0  0  0  0  0  0  0  0  0  0
  1  2  1  0  0  0  0
  2  3  1  0  0  0  0
  3  4  2  0  0  0  0
  4  5  1  0  0  0  0
  5  6  2  0  0  0  0
  6  7  1  0  0  0  0
  7  8  2  0  0  0  0
  8  9  1  0  0  0  0
  5  9  1  0  0  0  0
  7 10  1  0  0  0  0
 10 11  1  0  0  0  0
 11 12  1  0  0  0  0
 10 12  1  0  0  0  0
  4 13  1  0  0  0  0
 13 14  2  0  0  0  0
  2 14  1  0  0  0  0
 14 15  1  0  0  0  0
 15 16  1  0  0  0  0
 16 17  1  0  0  0  0
 17 18  1  0  0  0  0
 13 18  1  0  0  0  0
 17 19  1  0  0  0  0
 19 20  2  0  0  0  0
 20 21  1  0  0  0  0
 20 22  1  0  0  0  0
 22 23  2  0  0  0  0
 23 24  1  0  0  0  0
 24 25  2  0  0  0  0
 19 25  1  0  0  0  0
M  END
> <ID>
CPD_3065

$$$$
CPD_3070
  Mrv1822 09091914012D          

 26 30  0  0  0  0            999 V2000
   -0.3984    0.7541    0.0000 C   0  0  0  0  0  0  0  0  0  0  0  0
   -0.1435   -0.0305    0.0000 N   0  0  0  0  0  0  0  0  0  0  0  0
   -0.6284   -0.6979    0.0000 N   0  0  0  0  0  0  0  0  0  0  0  0
   -0.1435   -1.3654    0.0000 C   0  0  0  0  0  0  0  0  0  0  0  0
   -0.3984   -2.1500    0.0000 C   0  0  0  0  0  0  0  0  0  0  0  0
    0.0865   -2.8174    0.0000 N   0  0  0  0  0  0  0  0  0  0  0  0
   -0.3984   -3.4849    0.0000 C   0  0  0  0  0  0  0  0  0  0  0  0
   -1.1831   -3.2299    0.0000 N   0  0  0  0  0  0  0  0  0  0  0  0
   -1.1831   -2.4049    0.0000 O   0  0  0  0  0  0  0  0  0  0  0  0
   -0.1435   -4.2695    0.0000 C   0  0  0  0  0  0  0  0  0  0  0  0
    0.4696   -4.8215    0.0000 C   0  0  0  0  0  0  0  0  0  0  0  0
   -0.3150   -5.0765    0.0000 C   0  0  0  0  0  0  0  0  0  0  0  0
    0.6411   -1.1104    0.0000 C   0  0  0  0  0  0  0  0  0  0  0  0
    0.6411   -0.2854    0.0000 C   0  0  0  0  0  0  0  0  0  0  0  0
    1.3556    0.1271    0.0000 C   0  0  0  0  0  0  0  0  0  0  0  0
    2.0701   -0.2854    0.0000 C   0  0  0  0  0  0  0  0  0  0  0  0
    2.0701   -1.1104    0.0000 N   0  0  0  0  0  0  0  0  0  0  0  0
    1.3556   -1.5229    0.0000 C   0  0  0  0  0  0  0  0  0  0  0  0
    2.7845   -1.5229    0.0000 C   0  0  0  0  0  0  0  0  0  0  0  0
    3.4990   -1.1104    0.0000 C   0  0  0  0  0  0  0  0  0  0  0  0
    3.4990   -0.2854    0.0000 Cl  0  0  0  0  0  0  0  0  0  0  0  0
    4.2135   -1.5229    0.0000 C   0  0  0  0  0  0  0  0  0  0  0  0
    4.2135   -2.3479    0.0000 C   0  0  0  0  0  0  0  0  0  0  0  0
    4.9279   -2.7604    0.0000 O   0  0  0  0  0  0  0  0  0  0  0  0
    3.4990   -2.7604    0.0000 C   0  0  0  0  0  0  0  0  0  0  0  0
    2.7845   -2.3479    0.0000 C   0  0  0  0  0  0  0  0  0  0  0  0
  1  2  1  0  0  0  0
  2  3  1  0  0  0  0
  3  4  2  0  0  0  0
  4  5  1  0  0  0  0
  5  6  2  0  0  0  0
  6  7  1  0  0  0  0
  7  8  2  0  0  0  0
  8  9  1  0  0  0  0
  5  9  1  0  0  0  0
  7 10  1  0  0  0  0
 10 11  1  0  0  0  0
 11 12  1  0  0  0  0
 10 12  1  0  0  0  0
  4 13  1  0  0  0  0
 13 14  2  0  0  0  0
  2 14  1  0  0  0  0
 14 15  1  0  0  0  0
 15 16  1  0  0  0  0
 16 17  1  0  0  0  0
 17 18  1  0  0  0  0
 13 18  1  0  0  0  0
 17 19  1  0  0  0  0
 19 20  2  0  0  0  0
 20 21  1  0  0  0  0
 20 22  1  0  0  0  0
 22 23  2  0  0  0  0
 23 24  1  0  0  0  0
 23 25  1  0  0  0  0
 25 26  2  0  0  0  0
 19 26  1  0  0  0  0
M  END
> <ID>
CPD_3070

$$$$
CPD_3075
  Mrv1822 09091914012D          

 24 26  0  0  0  0            999 V2000
   -0.8006   -3.3762    0.0000 C   0  0  0  0  0  0  0  0  0  0  0  0
   -1.6131   -3.5195    0.0000 C   0  0  0  0  0  0  0  0  0  0  0  0
   -2.1434   -2.8875    0.0000 C   0  0  0  0  0  0  0  0  0  0  0  0
   -2.8579   -2.4750    0.0000 C   0  0  0  0  0  0  0  0  0  0  0  0
   -2.8579   -1.6500    0.0000 C   0  0  0  0  0  0  0  0  0  0  0  0
   -2.1434   -1.2375    0.0000 C   0  0  0  0  0  0  0  0  0  0  0  0
   -1.4289   -1.6500    0.0000 N   0  0  0  0  0  0  0  0  0  0  0  0
   -1.4289   -2.4750    0.0000 C   0  0  0  0  0  0  0  0  0  0  0  0
   -0.7145   -1.2375    0.0000 C   0  0  0  0  0  0  0  0  0  0  0  0
    0.0000   -1.6500    0.0000 C   0  0  0  0  0  0  0  0  0  0  0  0
    0.0000   -2.4750    0.0000 O   0  0  0  0  0  0  0  0  0  0  0  0
    0.7145   -1.2375    0.0000 C   0  0  0  0  0  0  0  0  0  0  0  0
    0.7145   -0.4125    0.0000 C   0  0  0  0  0  0  0  0  0  0  0  0
    1.4289   -0.0000    0.0000 C   0  0  0  0  0  0  0  0  0  0  0  0
    2.1434   -0.4125    0.0000 C   0  0  0  0  0  0  0  0  0  0  0  0
    2.1434   -1.2375    0.0000 C   0  0  0  0  0  0  0  0  0  0  0  0
    2.8579   -1.6500    0.0000 O   0  0  0  0  0  0  0  0  0  0  0  0
    3.5724   -1.2375    0.0000 C   0  0  0  0  0  0  0  0  0  0  0  0
    1.4289   -1.6500    0.0000 N   0  0  0  0  0  0  0  0  0  0  0  0
    0.0000   -0.0000    0.0000 N   0  0  0  0  0  0  0  0  0  0  0  0
   -0.7145   -0.4125    0.0000 C   0  0  0  0  0  0  0  0  0  0  0  0
   -2.6737   -3.5195    0.0000 C   0  0  0  0  0  0  0  0  0  0  0  0
   -3.4862   -3.3762    0.0000 O   0  0  0  0  0  0  0  0  0  0  0  0
   -2.3915   -4.2947    0.0000 O   0  0  0  0  0  0  0  0  0  0  0  0
  1  2  1  0  0  0  0
  2  3  1  0  0  0  0
  3  4  1  0  0  0  0
  4  5  1  0  0  0  0
  5  6  1  0  0  0  0
  6  7  1  0  0  0  0
  7  8  1  0  0  0  0
  3  8  1  0  0  0  0
  7  9  1  0  0  0  0
  9 10  2  0  0  0  0
 10 11  1  0  0  0  0
 10 12  1  0  0  0  0
 12 13  2  0  0  0  0
 13 14  1  0  0  0  0
 14 15  2  0  0  0  0
 15 16  1  0  0  0  0
 16 17  1  0  0  0  0
 17 18  1  0  0  0  0
 16 19  2  0  0  0  0
 12 19  1  0  0  0  0
 13 20  1  0  0  0  0
 20 21  2  0  0  0  0
  9 21  1  0  0  0  0
  3 22  1  0  0  0  0
 22 23  1  0  0  0  0
 22 24  2  0  0  0  0
M  END
> <ID>
CPD_3075

$$$$
CPD_3080
  Mrv1822 09091914012D          

 23 25  0  0  0  0            999 V2000
    1.4289   -1.6500    0.0000 C   0  0  0  0  0  0  0  0  0  0  0  0
    0.7145   -1.2375    0.0000 C   0  0  0  0  0  0  0  0  0  0  0  0
    0.7145   -0.4125    0.0000 C   0  0  0  0  0  0  0  0  0  0  0  0
    0.0000    0.0000    0.0000 C   0  0  0  0  0  0  0  0  0  0  0  0
   -0.7846   -0.2549    0.0000 N   0  0  0  0  0  0  0  0  0  0  0  0
   -1.2695    0.4125    0.0000 C   0  0  0  0  0  0  0  0  0  0  0  0
   -2.0945    0.4125    0.0000 O   0  0  0  0  0  0  0  0  0  0  0  0
   -0.7846    1.0799    0.0000 C   0  0  0  0  0  0  0  0  0  0  0  0
   -1.0396    1.8646    0.0000 N   0  0  0  0  0  0  0  0  0  0  0  0
   -1.8465    2.0361    0.0000 C   0  0  0  0  0  0  0  0  0  0  0  0
   -2.3986    1.4230    0.0000 N   0  0  0  0  0  0  0  0  0  0  0  0
   -3.2055    1.5945    0.0000 C   0  0  0  0  0  0  0  0  0  0  0  0
   -3.4605    2.3791    0.0000 C   0  0  0  0  0  0  0  0  0  0  0  0
   -2.9084    2.9922    0.0000 C   0  0  0  0  0  0  0  0  0  0  0  0
   -2.1015    2.8207    0.0000 N   0  0  0  0  0  0  0  0  0  0  0  0
   -3.1634    3.7769    0.0000 C   0  0  0  0  0  0  0  0  0  0  0  0
   -3.4183    4.5615    0.0000 C   0  0  0  0  0  0  0  0  0  0  0  0
   -2.3788    4.0318    0.0000 C   0  0  0  0  0  0  0  0  0  0  0  0
   -3.9480    3.5219    0.0000 C   0  0  0  0  0  0  0  0  0  0  0  0
    0.0000    0.8250    0.0000 C   0  0  0  0  0  0  0  0  0  0  0  0
    0.7145    1.2375    0.0000 C   0  0  0  0  0  0  0  0  0  0  0  0
    1.4289    0.8250    0.0000 C   0  0  0  0  0  0  0  0  0  0  0  0
    1.4289    0.0000    0.0000 C   0  0  0  0  0  0  0  0  0  0  0  0
  1  2  1  0  0  0  0
  2  3  1  0  0  0  0
  3  4  2  0  0  0  0
  4  5  1  0  0  0  0
  5  6  1  0  0  0  0
  6  7  2  0  0  0  0
  6  8  1  0  0  0  0
  8  9  1  0  0  0  0
  9 10  1  0  0  0  0
 10 11  2  0  0  0  0
 11 12  1  0  0  0  0
 12 13  2  0  0  0  0
 13 14  1  0  0  0  0
 14 15  2  0  0  0  0
 10 15  1  0  0  0  0
 14 16  1  0  0  0  0
 16 17  1  0  0  0  0
 16 18  1  0  0  0  0
 16 19  1  0  0  0  0
  8 20  1  0  0  0  0
  4 20  1  0  0  0  0
 20 21  2  0  0  0  0
 21 22  1  0  0  0  0
 22 23  2  0  0  0  0
  3 23  1  0  0  0  0
M  END
> <ID>
CPD_3080

$$$$
CPD_3085
  Mrv1822 09091914012D          

 22 24  0  0  0  0            999 V2000
    1.4289   -1.6500    0.0000 C   0  0  0  0  0  0  0  0  0  0  0  0
    0.7145   -1.2375    0.0000 C   0  0  0  0  0  0  0  0  0  0  0  0
    0.7145   -0.4125    0.0000 C   0  0  0  0  0  0  0  0  0  0  0  0
    0.0000    0.0000    0.0000 C   0  0  0  0  0  0  0  0  0  0  0  0
   -0.7846   -0.2549    0.0000 N   0  0  0  0  0  0  0  0  0  0  0  0
   -1.2695    0.4125    0.0000 C   0  0  0  0  0  0  0  0  0  0  0  0
   -2.0945    0.4125    0.0000 O   0  0  0  0  0  0  0  0  0  0  0  0
   -0.7846    1.0799    0.0000 C   0  0  0  0  0  0  0  0  0  0  0  0
   -1.0396    1.8646    0.0000 N   0  0  0  0  0  0  0  0  0  0  0  0
   -0.4875    2.4777    0.0000 C   0  0  0  0  0  0  0  0  0  0  0  0
    0.3194    2.3061    0.0000 C   0  0  0  0  0  0  0  0  0  0  0  0
    0.8715    2.9192    0.0000 C   0  0  0  0  0  0  0  0  0  0  0  0
    1.6784    2.7477    0.0000 N   0  0  0  0  0  0  0  0  0  0  0  0
    0.6165    3.7038    0.0000 C   0  0  0  0  0  0  0  0  0  0  0  0
    1.1686    4.3169    0.0000 Cl  0  0  0  0  0  0  0  0  0  0  0  0
   -0.1904    3.8754    0.0000 C   0  0  0  0  0  0  0  0  0  0  0  0
   -0.7425    3.2623    0.0000 C   0  0  0  0  0  0  0  0  0  0  0  0
   -1.5494    3.4338    0.0000 Cl  0  0  0  0  0  0  0  0  0  0  0  0
    0.0000    0.8250    0.0000 C   0  0  0  0  0  0  0  0  0  0  0  0
    0.7145    1.2375    0.0000 C   0  0  0  0  0  0  0  0  0  0  0  0
    1.4289    0.8250    0.0000 C   0  0  0  0  0  0  0  0  0  0  0  0
    1.4289    0.0000    0.0000 C   0  0  0  0  0  0  0  0  0  0  0  0
  1  2  1  0  0  0  0
  2  3  1  0  0  0  0
  3  4  2  0  0  0  0
  4  5  1  0  0  0  0
  5  6  1  0  0  0  0
  6  7  2  0  0  0  0
  6  8  1  0  0  0  0
  8  9  1  0  0  0  0
  9 10  1  0  0  0  0
 10 11  2  0  0  0  0
 11 12  1  0  0  0  0
 12 13  1  0  0  0  0
 12 14  2  0  0  0  0
 14 15  1  0  0  0  0
 14 16  1  0  0  0  0
 16 17  2  0  0  0  0
 10 17  1  0  0  0  0
 17 18  1  0  0  0  0
  8 19  1  0  0  0  0
  4 19  1  0  0  0  0
 19 20  2  0  0  0  0
 20 21  1  0  0  0  0
 21 22  2  0  0  0  0
  3 22  1  0  0  0  0
M  END
> <ID>
CPD_3085

$$$$
CPD_3090
  Mrv1822 09091914012D          

 34 37  0  0  0  0            999 V2000
   -5.0013   -2.8875    0.0000 O   0  0  0  0  0  0  0  0  0  0  0  0
   -5.0013   -3.7125    0.0000 C   0  0  0  0  0  0  0  0  0  0  0  0
   -4.2868   -4.1250    0.0000 O   0  0  0  0  0  0  0  0  0  0  0  0
   -5.7158   -4.1250    0.0000 C   0  0  0  0  0  0  0  0  0  0  0  0
   -5.7158   -4.9500    0.0000 C   0  0  0  0  0  0  0  0  0  0  0  0
   -5.0013   -5.3625    0.0000 C   0  0  0  0  0  0  0  0  0  0  0  0
   -5.0013   -6.1875    0.0000 C   0  0  0  0  0  0  0  0  0  0  0  0
   -4.2868   -6.6000    0.0000 F   0  0  0  0  0  0  0  0  0  0  0  0
   -5.7158   -6.6000    0.0000 C   0  0  0  0  0  0  0  0  0  0  0  0
   -6.4302   -6.1875    0.0000 C   0  0  0  0  0  0  0  0  0  0  0  0
   -7.1447   -6.6000    0.0000 N   0  0  0  0  0  0  0  0  0  0  0  0
   -7.1447   -7.4250    0.0000 C   0  0  0  0  0  0  0  0  0  0  0  0
   -7.8592   -7.8375    0.0000 C   0  0  0  0  0  0  0  0  0  0  0  0
   -8.5737   -7.4250    0.0000 C   0  0  0  0  0  0  0  0  0  0  0  0
   -9.2881   -7.8375    0.0000 C   0  0  0  0  0  0  0  0  0  0  0  0
   -9.2881   -8.6625    0.0000 O   0  0  0  0  0  0  0  0  0  0  0  0
  -10.0026   -9.0750    0.0000 C   0  0  0  0  0  0  0  0  0  0  0  0
  -10.0026   -9.9000    0.0000 C   0  0  0  0  0  0  0  0  0  0  0  0
  -10.7171  -10.3125    0.0000 C   0  0  0  0  0  0  0  0  0  0  0  0
  -11.4315   -9.9000    0.0000 C   0  0  0  0  0  0  0  0  0  0  0  0
  -11.4315   -9.0750    0.0000 C   0  0  0  0  0  0  0  0  0  0  0  0
  -10.7171   -8.6625    0.0000 C   0  0  0  0  0  0  0  0  0  0  0  0
  -12.1460  -10.3125    0.0000 C   0  0  0  0  0  0  0  0  0  0  0  0
  -12.8605   -9.9000    0.0000 O   0  0  0  0  0  0  0  0  0  0  0  0
  -12.1460  -11.1375    0.0000 N   0  0  0  0  0  0  0  0  0  0  0  0
  -11.4315  -11.5500    0.0000 C   0  0  0  0  0  0  0  0  0  0  0  0
  -11.4315  -12.3750    0.0000 C   0  0  0  0  0  0  0  0  0  0  0  0
  -12.1460  -12.7875    0.0000 O   0  0  0  0  0  0  0  0  0  0  0  0
  -12.8605  -12.3750    0.0000 C   0  0  0  0  0  0  0  0  0  0  0  0
  -12.8605  -11.5500    0.0000 C   0  0  0  0  0  0  0  0  0  0  0  0
   -8.5737   -6.6000    0.0000 C   0  0  0  0  0  0  0  0  0  0  0  0
   -7.8592   -6.1875    0.0000 C   0  0  0  0  0  0  0  0  0  0  0  0
   -6.4302   -5.3625    0.0000 C   0  0  0  0  0  0  0  0  0  0  0  0
   -7.1447   -4.9500    0.0000 F   0  0  0  0  0  0  0  0  0  0  0  0
  1  2  1  0  0  0  0
  2  3  2  0  0  0  0
  2  4  1  0  0  0  0
  4  5  1  0  0  0  0
  5  6  2  0  0  0  0
  6  7  1  0  0  0  0
  7  8  1  0  0  0  0
  7  9  2  0  0  0  0
  9 10  1  0  0  0  0
 10 11  1  0  0  0  0
 11 12  1  0  0  0  0
 12 13  1  0  0  0  0
 13 14  1  0  0  0  0
 14 15  1  0  0  0  0
 15 16  1  0  0  0  0
 16 17  1  0  0  0  0
 17 18  2  0  0  0  0
 18 19  1  0  0  0  0
 19 20  2  0  0  0  0
 20 21  1  0  0  0  0
 21 22  2  0  0  0  0
 17 22  1  0  0  0  0
 20 23  1  0  0  0  0
 23 24  2  0  0  0  0
 23 25  1  0  0  0  0
 25 26  1  0  0  0  0
 26 27  1  0  0  0  0
 27 28  1  0  0  0  0
 28 29  1  0  0  0  0
 29 30  1  0  0  0  0
 25 30  1  0  0  0  0
 14 31  1  0  0  0  0
 31 32  1  0  0  0  0
 11 32  1  0  0  0  0
 10 33  2  0  0  0  0
  5 33  1  0  0  0  0
 33 34  1  0  0  0  0
M  END
> <ID>
CPD_3090

$$$$
CPD_3095
  Mrv1822 09091914012D          

 31 35  0  0  0  0            999 V2000
    0.7145   -7.8375    0.0000 O   0  0  0  0  0  0  0  0  0  0  0  0
    1.4289   -7.4250    0.0000 C   0  0  0  0  0  0  0  0  0  0  0  0
    2.1434   -7.8375    0.0000 N   0  0  0  0  0  0  0  0  0  0  0  0
    2.8579   -7.4250    0.0000 C   0  0  0  0  0  0  0  0  0  0  0  0
    3.5724   -7.8375    0.0000 C   0  0  0  0  0  0  0  0  0  0  0  0
    3.5724   -8.6625    0.0000 O   0  0  0  0  0  0  0  0  0  0  0  0
    2.8579   -9.0750    0.0000 C   0  0  0  0  0  0  0  0  0  0  0  0
    2.1434   -8.6625    0.0000 C   0  0  0  0  0  0  0  0  0  0  0  0
    1.4289   -6.6000    0.0000 C   0  0  0  0  0  0  0  0  0  0  0  0
    0.7145   -6.1875    0.0000 C   0  0  0  0  0  0  0  0  0  0  0  0
    0.7145   -5.3625    0.0000 C   0  0  0  0  0  0  0  0  0  0  0  0
    1.4289   -4.9500    0.0000 C   0  0  0  0  0  0  0  0  0  0  0  0
    1.4289   -4.1250    0.0000 O   0  0  0  0  0  0  0  0  0  0  0  0
    0.7145   -3.7125    0.0000 C   0  0  0  0  0  0  0  0  0  0  0  0
    0.7145   -2.8875    0.0000 C   0  0  0  0  0  0  0  0  0  0  0  0
    0.0000   -2.4750    0.0000 C   0  0  0  0  0  0  0  0  0  0  0  0
    0.0000   -1.6500    0.0000 C   0  0  0  0  0  0  0  0  0  0  0  0
    0.7145   -1.2375    0.0000 N   0  0  0  0  0  0  0  0  0  0  0  0
    1.4289   -1.6500    0.0000 C   0  0  0  0  0  0  0  0  0  0  0  0
    1.4289   -2.4750    0.0000 C   0  0  0  0  0  0  0  0  0  0  0  0
    0.7145   -0.4125    0.0000 C   0  0  0  0  0  0  0  0  0  0  0  0
    0.0000    0.0000    0.0000 C   0  0  0  0  0  0  0  0  0  0  0  0
   -0.7846   -0.2549    0.0000 C   0  0  0  0  0  0  0  0  0  0  0  0
   -1.2695    0.4125    0.0000 C   0  0  0  0  0  0  0  0  0  0  0  0
   -0.7846    1.0799    0.0000 N   0  0  0  0  0  0  0  0  0  0  0  0
    0.0000    0.8250    0.0000 C   0  0  0  0  0  0  0  0  0  0  0  0
    0.7145    1.2375    0.0000 N   0  0  0  0  0  0  0  0  0  0  0  0
    1.4289    0.8250    0.0000 C   0  0  0  0  0  0  0  0  0  0  0  0
    1.4289    0.0000    0.0000 C   0  0  0  0  0  0  0  0  0  0  0  0
    2.1434   -5.3625    0.0000 C   0  0  0  0  0  0  0  0  0  0  0  0
    2.1434   -6.1875    0.0000 C   0  0  0  0  0  0  0  0  0  0  0  0
  1  2  2  0  0  0  0
  2  3  1  0  0  0  0
  3  4  1  0  0  0  0
  4  5  1  0  0  0  0
  5  6  1  0  0  0  0
  6  7  1  0  0  0  0
  7  8  1  0  0  0  0
  3  8  1  0  0  0  0
  2  9  1  0  0  0  0
  9 10  2  0  0  0  0
 10 11  1  0  0  0  0
 11 12  2  0  0  0  0
 12 13  1  0  0  0  0
 13 14  1  0  0  0  0
 14 15  1  0  0  0  0
 15 16  1  0  0  0  0
 16 17  1  0  0  0  0
 17 18  1  0  0  0  0
 18 19  1  0  0  0  0
 19 20  1  0  0  0  0
 15 20  1  0  0  0  0
 18 21  1  0  0  0  0
 21 22  2  0  0  0  0
 22 23  1  0  0  0  0
 23 24  2  0  0  0  0
 24 25  1  0  0  0  0
 25 26  1  0  0  0  0
 22 26  1  0  0  0  0
 26 27  2  0  0  0  0
 27 28  1  0  0  0  0
 28 29  2  0  0  0  0
 21 29  1  0  0  0  0
 12 30  1  0  0  0  0
 30 31  2  0  0  0  0
  9 31  1  0  0  0  0
M  END
> <ID>
CPD_3095

$$$$
CPD_3100
  Mrv1822 09091914012D          

 35 39  0  0  0  0            999 V2000
   -0.5837    0.0165    0.0000 O   0  0  0  0  0  0  0  0  0  0  0  0
   -0.1712   -0.6979    0.0000 C   0  0  0  0  0  0  0  0  0  0  0  0
   -0.5837   -1.4124    0.0000 O   0  0  0  0  0  0  0  0  0  0  0  0
    0.6538   -0.6979    0.0000 C   0  0  0  0  0  0  0  0  0  0  0  0
    1.1387   -0.0305    0.0000 C   0  0  0  0  0  0  0  0  0  0  0  0
    1.9233   -0.2854    0.0000 C   0  0  0  0  0  0  0  0  0  0  0  0
    2.6378    0.1271    0.0000 C   0  0  0  0  0  0  0  0  0  0  0  0
    2.6378    0.9521    0.0000 Cl  0  0  0  0  0  0  0  0  0  0  0  0
    3.3523   -0.2854    0.0000 C   0  0  0  0  0  0  0  0  0  0  0  0
    3.3523   -1.1104    0.0000 C   0  0  0  0  0  0  0  0  0  0  0  0
    2.6378   -1.5229    0.0000 C   0  0  0  0  0  0  0  0  0  0  0  0
    2.6378   -2.3479    0.0000 N   0  0  0  0  0  0  0  0  0  0  0  0
    3.3523   -2.7604    0.0000 C   0  0  0  0  0  0  0  0  0  0  0  0
    3.3523   -3.5854    0.0000 C   0  0  0  0  0  0  0  0  0  0  0  0
    2.6378   -3.9979    0.0000 C   0  0  0  0  0  0  0  0  0  0  0  0
    2.6378   -4.8229    0.0000 C   0  0  0  0  0  0  0  0  0  0  0  0
    3.3523   -5.2354    0.0000 O   0  0  0  0  0  0  0  0  0  0  0  0
    3.3523   -6.0604    0.0000 C   0  0  0  0  0  0  0  0  0  0  0  0
    4.0668   -6.4729    0.0000 C   0  0  0  0  0  0  0  0  0  0  0  0
    4.0668   -7.2979    0.0000 C   0  0  0  0  0  0  0  0  0  0  0  0
    3.3523   -7.7104    0.0000 C   0  0  0  0  0  0  0  0  0  0  0  0
    2.6378   -7.2979    0.0000 C   0  0  0  0  0  0  0  0  0  0  0  0
    2.6378   -6.4729    0.0000 C   0  0  0  0  0  0  0  0  0  0  0  0
    3.3523   -8.5354    0.0000 C   0  0  0  0  0  0  0  0  0  0  0  0
    4.0668   -8.9479    0.0000 O   0  0  0  0  0  0  0  0  0  0  0  0
    2.6378   -8.9479    0.0000 N   0  0  0  0  0  0  0  0  0  0  0  0
    2.6378   -9.7729    0.0000 C   0  0  0  0  0  0  0  0  0  0  0  0
    1.9233  -10.1854    0.0000 C   0  0  0  0  0  0  0  0  0  0  0  0
    1.2089   -9.7729    0.0000 O   0  0  0  0  0  0  0  0  0  0  0  0
    1.2089   -8.9479    0.0000 C   0  0  0  0  0  0  0  0  0  0  0  0
    1.9233   -8.5354    0.0000 C   0  0  0  0  0  0  0  0  0  0  0  0
    1.9233   -3.5854    0.0000 C   0  0  0  0  0  0  0  0  0  0  0  0
    1.9233   -2.7604    0.0000 C   0  0  0  0  0  0  0  0  0  0  0  0
    1.9233   -1.1104    0.0000 C   0  0  0  0  0  0  0  0  0  0  0  0
    1.1387   -1.3654    0.0000 N   0  0  0  0  0  0  0  0  0  0  0  0
  1  2  1  0  0  0  0
  2  3  2  0  0  0  0
  2  4  1  0  0  0  0
  4  5  2  0  0  0  0
  5  6  1  0  0  0  0
  6  7  2  0  0  0  0
  7  8  1  0  0  0  0
  7  9  1  0  0  0  0
  9 10  2  0  0  0  0
 10 11  1  0  0  0  0
 11 12  1  0  0  0  0
 12 13  1  0  0  0  0
 13 14  1  0  0  0  0
 14 15  1  0  0  0  0
 15 16  1  0  0  0  0
 16 17  1  0  0  0  0
 17 18  1  0  0  0  0
 18 19  2  0  0  0  0
 19 20  1  0  0  0  0
 20 21  2  0  0  0  0
 21 22  1  0  0  0  0
 22 23  2  0  0  0  0
 18 23  1  0  0  0  0
 21 24  1  0  0  0  0
 24 25  2  0  0  0  0
 24 26  1  0  0  0  0
 26 27  1  0  0  0  0
 27 28  1  0  0  0  0
 28 29  1  0  0  0  0
 29 30  1  0  0  0  0
 30 31  1  0  0  0  0
 26 31  1  0  0  0  0
 15 32  1  0  0  0  0
 32 33  1  0  0  0  0
 12 33  1  0  0  0  0
 11 34  2  0  0  0  0
  6 34  1  0  0  0  0
 34 35  1  0  0  0  0
  4 35  1  0  0  0  0
M  END
> <ID>
CPD_3100

$$$$
CPD_3105
  Mrv1822 09091914012D          

 35 38  0  0  0  0            999 V2000
    7.1447   -2.4750    0.0000 N   0  0  0  0  0  0  0  0  0  0  0  0
    7.8592   -2.8875    0.0000 C   0  0  0  0  0  0  0  0  0  0  0  0
    8.5737   -2.4750    0.0000 O   0  0  0  0  0  0  0  0  0  0  0  0
    7.8592   -3.7125    0.0000 C   0  0  0  0  0  0  0  0  0  0  0  0
    8.5737   -4.1250    0.0000 C   0  0  0  0  0  0  0  0  0  0  0  0
    8.5737   -4.9500    0.0000 C   0  0  0  0  0  0  0  0  0  0  0  0
    7.8592   -5.3625    0.0000 C   0  0  0  0  0  0  0  0  0  0  0  0
    7.1447   -4.9500    0.0000 C   0  0  0  0  0  0  0  0  0  0  0  0
    7.1447   -4.1250    0.0000 C   0  0  0  0  0  0  0  0  0  0  0  0
    9.2881   -5.3625    0.0000 N   0  0  0  0  0  0  0  0  0  0  0  0
   10.0026   -4.9500    0.0000 C   0  0  0  0  0  0  0  0  0  0  0  0
   10.7171   -5.3625    0.0000 C   0  0  0  0  0  0  0  0  0  0  0  0
   10.7171   -6.1875    0.0000 C   0  0  0  0  0  0  0  0  0  0  0  0
   11.4315   -6.6000    0.0000 C   0  0  0  0  0  0  0  0  0  0  0  0
   12.1460   -6.1875    0.0000 O   0  0  0  0  0  0  0  0  0  0  0  0
   12.8605   -6.6000    0.0000 C   0  0  0  0  0  0  0  0  0  0  0  0
   13.5749   -6.1875    0.0000 C   0  0  0  0  0  0  0  0  0  0  0  0
   14.2894   -6.6000    0.0000 C   0  0  0  0  0  0  0  0  0  0  0  0
   14.2894   -7.4250    0.0000 C   0  0  0  0  0  0  0  0  0  0  0  0
   13.5749   -7.8375    0.0000 C   0  0  0  0  0  0  0  0  0  0  0  0
   12.8605   -7.4250    0.0000 C   0  0  0  0  0  0  0  0  0  0  0  0
   15.0039   -7.8375    0.0000 C   0  0  0  0  0  0  0  0  0  0  0  0
   15.7184   -7.4250    0.0000 O   0  0  0  0  0  0  0  0  0  0  0  0
   15.0039   -8.6625    0.0000 N   0  0  0  0  0  0  0  0  0  0  0  0
   15.7184   -9.0750    0.0000 C   0  0  0  0  0  0  0  0  0  0  0  0
   15.7184   -9.9000    0.0000 C   0  0  0  0  0  0  0  0  0  0  0  0
   15.0039  -10.3125    0.0000 O   0  0  0  0  0  0  0  0  0  0  0  0
   14.2894   -9.9000    0.0000 C   0  0  0  0  0  0  0  0  0  0  0  0
   14.2894   -9.0750    0.0000 C   0  0  0  0  0  0  0  0  0  0  0  0
   10.0026   -6.6000    0.0000 C   0  0  0  0  0  0  0  0  0  0  0  0
    9.2881   -6.1875    0.0000 C   0  0  0  0  0  0  0  0  0  0  0  0
    9.2881   -3.7125    0.0000 C   0  0  0  0  0  0  0  0  0  0  0  0
   10.0026   -3.3000    0.0000 F   0  0  0  0  0  0  0  0  0  0  0  0
    9.7006   -4.4270    0.0000 F   0  0  0  0  0  0  0  0  0  0  0  0
    8.8756   -2.9980    0.0000 F   0  0  0  0  0  0  0  0  0  0  0  0
  1  2  1  0  0  0  0
  2  3  2  0  0  0  0
  2  4  1  0  0  0  0
  4  5  2  0  0  0  0
  5  6  1  0  0  0  0
  6  7  2  0  0  0  0
  7  8  1  0  0  0  0
  8  9  2  0  0  0  0
  4  9  1  0  0  0  0
  6 10  1  0  0  0  0
 10 11  1  0  0  0  0
 11 12  1  0  0  0  0
 12 13  1  0  0  0  0
 13 14  1  0  0  0  0
 14 15  1  0  0  0  0
 15 16  1  0  0  0  0
 16 17  2  0  0  0  0
 17 18  1  0  0  0  0
 18 19  2  0  0  0  0
 19 20  1  0  0  0  0
 20 21  2  0  0  0  0
 16 21  1  0  0  0  0
 19 22  1  0  0  0  0
 22 23  2  0  0  0  0
 22 24  1  0  0  0  0
 24 25  1  0  0  0  0
 25 26  1  0  0  0  0
 26 27  1  0  0  0  0
 27 28  1  0  0  0  0
 28 29  1  0  0  0  0
 24 29  1  0  0  0  0
 13 30  1  0  0  0  0
 30 31  1  0  0  0  0
 10 31  1  0  0  0  0
  5 32  1  0  0  0  0
 32 33  1  0  0  0  0
 32 34  1  0  0  0  0
 32 35  1  0  0  0  0
M  END
> <ID>
CPD_3105

$$$$
CPD_3110
  Mrv1822 09091914012D          

 37 42  0  0  0  0            999 V2000
   -2.6909    0.0165    0.0000 C   0  0  0  0  0  0  0  0  0  0  0  0
   -1.8659    0.0165    0.0000 O   0  0  0  0  0  0  0  0  0  0  0  0
   -1.4534   -0.6979    0.0000 C   0  0  0  0  0  0  0  0  0  0  0  0
   -1.8659   -1.4124    0.0000 O   0  0  0  0  0  0  0  0  0  0  0  0
   -0.6284   -0.6979    0.0000 C   0  0  0  0  0  0  0  0  0  0  0  0
   -0.1435   -1.3654    0.0000 C   0  0  0  0  0  0  0  0  0  0  0  0
   -0.3984   -2.1500    0.0000 N   0  0  0  0  0  0  0  0  0  0  0  0
    0.6411   -1.1104    0.0000 C   0  0  0  0  0  0  0  0  0  0  0  0
    0.6411   -0.2854    0.0000 C   0  0  0  0  0  0  0  0  0  0  0  0
   -0.1435   -0.0305    0.0000 S   0  0  0  0  0  0  0  0  0  0  0  0
    1.3556    0.1271    0.0000 N   0  0  0  0  0  0  0  0  0  0  0  0
    2.0701   -0.2854    0.0000 C   0  0  0  0  0  0  0  0  0  0  0  0
    2.7845    0.1271    0.0000 C   0  0  0  0  0  0  0  0  0  0  0  0
    3.1970    0.8415    0.0000 C   0  0  0  0  0  0  0  0  0  0  0  0
    3.6095    0.1271    0.0000 C   0  0  0  0  0  0  0  0  0  0  0  0
    2.0701   -1.1104    0.0000 C   0  0  0  0  0  0  0  0  0  0  0  0
    1.3556   -1.5229    0.0000 C   0  0  0  0  0  0  0  0  0  0  0  0
    2.7845   -1.5229    0.0000 N   0  0  0  0  0  0  0  0  0  0  0  0
    3.4990   -1.1104    0.0000 C   0  0  0  0  0  0  0  0  0  0  0  0
    4.2135   -1.5229    0.0000 C   0  0  0  0  0  0  0  0  0  0  0  0
    4.2135   -2.3479    0.0000 C   0  0  0  0  0  0  0  0  0  0  0  0
    3.4990   -2.7604    0.0000 C   0  0  0  0  0  0  0  0  0  0  0  0
    3.4990   -3.5854    0.0000 C   0  0  0  0  0  0  0  0  0  0  0  0
    4.2135   -3.9979    0.0000 O   0  0  0  0  0  0  0  0  0  0  0  0
    4.2135   -4.8229    0.0000 C   0  0  0  0  0  0  0  0  0  0  0  0
    4.9279   -5.2354    0.0000 C   0  0  0  0  0  0  0  0  0  0  0  0
    4.9279   -6.0604    0.0000 C   0  0  0  0  0  0  0  0  0  0  0  0
    4.2135   -6.4729    0.0000 C   0  0  0  0  0  0  0  0  0  0  0  0
    3.4990   -6.0604    0.0000 C   0  0  0  0  0  0  0  0  0  0  0  0
    3.4990   -5.2354    0.0000 C   0  0  0  0  0  0  0  0  0  0  0  0
    5.6424   -6.4729    0.0000 C   0  0  0  0  0  0  0  0  0  0  0  0
    5.6424   -7.2979    0.0000 O   0  0  0  0  0  0  0  0  0  0  0  0
    6.3569   -6.0604    0.0000 N   0  0  0  0  0  0  0  0  0  0  0  0
    7.0714   -6.4729    0.0000 C   0  0  0  0  0  0  0  0  0  0  0  0
    7.8964   -6.4729    0.0000 C   0  0  0  0  0  0  0  0  0  0  0  0
    7.4839   -7.1874    0.0000 C   0  0  0  0  0  0  0  0  0  0  0  0
    2.7845   -2.3479    0.0000 C   0  0  0  0  0  0  0  0  0  0  0  0
  1  2  1  0  0  0  0
  2  3  1  0  0  0  0
  3  4  2  0  0  0  0
  3  5  1  0  0  0  0
  5  6  2  0  0  0  0
  6  7  1  0  0  0  0
  6  8  1  0  0  0  0
  8  9  2  0  0  0  0
  9 10  1  0  0  0  0
  5 10  1  0  0  0  0
  9 11  1  0  0  0  0
 11 12  2  0  0  0  0
 12 13  1  0  0  0  0
 13 14  1  0  0  0  0
 14 15  1  0  0  0  0
 13 15  1  0  0  0  0
 12 16  1  0  0  0  0
 16 17  2  0  0  0  0
  8 17  1  0  0  0  0
 16 18  1  0  0  0  0
 18 19  1  0  0  0  0
 19 20  1  0  0  0  0
 20 21  1  0  0  0  0
 21 22  1  0  0  0  0
 22 23  1  0  0  0  0
 23 24  1  0  0  0  0
 24 25  1  0  0  0  0
 25 26  2  0  0  0  0
 26 27  1  0  0  0  0
 27 28  2  0  0  0  0
 28 29  1  0  0  0  0
 29 30  2  0  0  0  0
 25 30  1  0  0  0  0
 27 31  1  0  0  0  0
 31 32  2  0  0  0  0
 31 33  1  0  0  0  0
 33 34  1  0  0  0  0
 34 35  1  0  0  0  0
 35 36  1  0  0  0  0
 34 36  1  0  0  0  0
 22 37  1  0  0  0  0
 18 37  1  0  0  0  0
M  END
> <ID>
CPD_3110

$$$$
CPD_3115
  Mrv1822 09091914012D          

 33 37  0  0  0  0            999 V2000
    0.0000    0.0000    0.0000 N   0  0  0  0  0  0  0  0  0  0  0  0
    0.7145   -0.4125    0.0000 C   0  0  0  0  0  0  0  0  0  0  0  0
    1.4289    0.0000    0.0000 N   0  0  0  0  0  0  0  0  0  0  0  0
    2.1434   -0.4125    0.0000 C   0  0  0  0  0  0  0  0  0  0  0  0
    2.8579    0.0000    0.0000 C   0  0  0  0  0  0  0  0  0  0  0  0
    3.5724   -0.4125    0.0000 C   0  0  0  0  0  0  0  0  0  0  0  0
    3.5724   -1.2375    0.0000 C   0  0  0  0  0  0  0  0  0  0  0  0
    2.8579   -1.6500    0.0000 C   0  0  0  0  0  0  0  0  0  0  0  0
    2.1434   -1.2375    0.0000 C   0  0  0  0  0  0  0  0  0  0  0  0
    1.4289   -1.6500    0.0000 C   0  0  0  0  0  0  0  0  0  0  0  0
    0.7145   -1.2375    0.0000 C   0  0  0  0  0  0  0  0  0  0  0  0
    0.0000   -1.6500    0.0000 C   0  0  0  0  0  0  0  0  0  0  0  0
   -0.7145   -2.0625    0.0000 N   0  0  0  0  0  0  0  0  0  0  0  0
    4.2868   -1.6500    0.0000 N   0  0  0  0  0  0  0  0  0  0  0  0
    5.0013   -1.2375    0.0000 C   0  0  0  0  0  0  0  0  0  0  0  0
    5.7158   -1.6500    0.0000 C   0  0  0  0  0  0  0  0  0  0  0  0
    5.7158   -2.4750    0.0000 C   0  0  0  0  0  0  0  0  0  0  0  0
    5.0013   -2.8875    0.0000 C   0  0  0  0  0  0  0  0  0  0  0  0
    5.0013   -3.7125    0.0000 C   0  0  0  0  0  0  0  0  0  0  0  0
    5.7158   -4.1250    0.0000 O   0  0  0  0  0  0  0  0  0  0  0  0
    5.7158   -4.9500    0.0000 C   0  0  0  0  0  0  0  0  0  0  0  0
    6.4302   -5.3625    0.0000 C   0  0  0  0  0  0  0  0  0  0  0  0
    6.4302   -6.1875    0.0000 C   0  0  0  0  0  0  0  0  0  0  0  0
    5.7158   -6.6000    0.0000 C   0  0  0  0  0  0  0  0  0  0  0  0
    5.0013   -6.1875    0.0000 C   0  0  0  0  0  0  0  0  0  0  0  0
    5.0013   -5.3625    0.0000 C   0  0  0  0  0  0  0  0  0  0  0  0
    7.1447   -6.6000    0.0000 C   0  0  0  0  0  0  0  0  0  0  0  0
    7.1447   -7.4250    0.0000 O   0  0  0  0  0  0  0  0  0  0  0  0
    7.8592   -6.1875    0.0000 N   0  0  0  0  0  0  0  0  0  0  0  0
    8.5737   -6.6000    0.0000 C   0  0  0  0  0  0  0  0  0  0  0  0
    9.3987   -6.6000    0.0000 C   0  0  0  0  0  0  0  0  0  0  0  0
    8.9862   -7.3145    0.0000 C   0  0  0  0  0  0  0  0  0  0  0  0
    4.2868   -2.4750    0.0000 C   0  0  0  0  0  0  0  0  0  0  0  0
  1  2  1  0  0  0  0
  2  3  2  0  0  0  0
  3  4  1  0  0  0  0
  4  5  2  0  0  0  0
  5  6  1  0  0  0  0
  6  7  2  0  0  0  0
  7  8  1  0  0  0  0
  8  9  2  0  0  0  0
  4  9  1  0  0  0  0
  9 10  1  0  0  0  0
 10 11  2  0  0  0  0
  2 11  1  0  0  0  0
 11 12  1  0  0  0  0
 12 13  3  0  0  0  0
  7 14  1  0  0  0  0
 14 15  1  0  0  0  0
 15 16  1  0  0  0  0
 16 17  1  0  0  0  0
 17 18  1  0  0  0  0
 18 19  1  0  0  0  0
 19 20  1  0  0  0  0
 20 21  1  0  0  0  0
 21 22  2  0  0  0  0
 22 23  1  0  0  0  0
 23 24  2  0  0  0  0
 24 25  1  0  0  0  0
 25 26  2  0  0  0  0
 21 26  1  0  0  0  0
 23 27  1  0  0  0  0
 27 28  2  0  0  0  0
 27 29  1  0  0  0  0
 29 30  1  0  0  0  0
 30 31  1  0  0  0  0
 31 32  1  0  0  0  0
 30 32  1  0  0  0  0
 18 33  1  0  0  0  0
 14 33  1  0  0  0  0
M  END
> <ID>
CPD_3115

$$$$
CPD_3120
  Mrv1822 09091914012D          

 30 33  0  0  0  0            999 V2000
   -1.8414   13.0895    0.0000 C   0  0  0  0  0  0  0  0  0  0  0  0
   -1.1270   12.6770    0.0000 N   0  0  0  0  0  0  0  0  0  0  0  0
   -1.1270   11.8520    0.0000 C   0  0  0  0  0  0  0  0  0  0  0  0
   -0.4125   11.4395    0.0000 C   0  0  0  0  0  0  0  0  0  0  0  0
   -0.4125   10.6145    0.0000 C   0  0  0  0  0  0  0  0  0  0  0  0
    0.3020   10.2020    0.0000 C   0  0  0  0  0  0  0  0  0  0  0  0
    0.3020    9.3770    0.0000 C   0  0  0  0  0  0  0  0  0  0  0  0
   -0.4125    8.9645    0.0000 C   0  0  0  0  0  0  0  0  0  0  0  0
   -1.1270    9.3770    0.0000 C   0  0  0  0  0  0  0  0  0  0  0  0
   -1.1270   10.2020    0.0000 C   0  0  0  0  0  0  0  0  0  0  0  0
   -0.4125    8.1395    0.0000 N   0  0  0  0  0  0  0  0  0  0  0  0
    0.3020    7.7270    0.0000 C   0  0  0  0  0  0  0  0  0  0  0  0
    0.3020    6.9020    0.0000 C   0  0  0  0  0  0  0  0  0  0  0  0
   -0.4125    6.4895    0.0000 C   0  0  0  0  0  0  0  0  0  0  0  0
   -1.1270    6.9020    0.0000 C   0  0  0  0  0  0  0  0  0  0  0  0
   -1.8414    6.4895    0.0000 C   0  0  0  0  0  0  0  0  0  0  0  0
   -1.8414    5.6645    0.0000 O   0  0  0  0  0  0  0  0  0  0  0  0
   -2.5559    5.2520    0.0000 C   0  0  0  0  0  0  0  0  0  0  0  0
   -2.5559    4.4270    0.0000 C   0  0  0  0  0  0  0  0  0  0  0  0
   -3.2704    4.0145    0.0000 C   0  0  0  0  0  0  0  0  0  0  0  0
   -3.9849    4.4270    0.0000 C   0  0  0  0  0  0  0  0  0  0  0  0
   -3.9849    5.2520    0.0000 C   0  0  0  0  0  0  0  0  0  0  0  0
   -3.2704    5.6645    0.0000 C   0  0  0  0  0  0  0  0  0  0  0  0
   -3.2704    3.1895    0.0000 C   0  0  0  0  0  0  0  0  0  0  0  0
   -3.9849    2.7770    0.0000 O   0  0  0  0  0  0  0  0  0  0  0  0
   -2.5559    2.7770    0.0000 N   0  0  0  0  0  0  0  0  0  0  0  0
   -2.5559    1.9520    0.0000 C   0  0  0  0  0  0  0  0  0  0  0  0
   -2.1434    1.2375    0.0000 C   0  0  0  0  0  0  0  0  0  0  0  0
   -2.9684    1.2375    0.0000 C   0  0  0  0  0  0  0  0  0  0  0  0
   -1.1270    7.7270    0.0000 C   0  0  0  0  0  0  0  0  0  0  0  0
  1  2  1  0  0  0  0
  2  3  1  0  0  0  0
  3  4  1  0  0  0  0
  4  5  1  0  0  0  0
  5  6  2  0  0  0  0
  6  7  1  0  0  0  0
  7  8  2  0  0  0  0
  8  9  1  0  0  0  0
  9 10  2  0  0  0  0
  5 10  1  0  0  0  0
  8 11  1  0  0  0  0
 11 12  1  0  0  0  0
 12 13  1  0  0  0  0
 13 14  1  0  0  0  0
 14 15  1  0  0  0  0
 15 16  1  0  0  0  0
 16 17  1  0  0  0  0
 17 18  1  0  0  0  0
 18 19  2  0  0  0  0
 19 20  1  0  0  0  0
 20 21  2  0  0  0  0
 21 22  1  0  0  0  0
 22 23  2  0  0  0  0
 18 23  1  0  0  0  0
 20 24  1  0  0  0  0
 24 25  2  0  0  0  0
 24 26  1  0  0  0  0
 26 27  1  0  0  0  0
 27 28  1  0  0  0  0
 28 29  1  0  0  0  0
 27 29  1  0  0  0  0
 15 30  1  0  0  0  0
 11 30  1  0  0  0  0
M  END
> <ID>
CPD_3120

$$$$
CPD_3125
  Mrv1822 09091914012D          

 24 26  0  0  0  0            999 V2000
    3.5160   -2.5387    0.0000 O   0  0  0  0  0  0  0  0  0  0  0  0
    3.2611   -1.7541    0.0000 C   0  0  0  0  0  0  0  0  0  0  0  0
    2.8486   -2.4685    0.0000 O   0  0  0  0  0  0  0  0  0  0  0  0
    3.8131   -1.1410    0.0000 C   0  0  0  0  0  0  0  0  0  0  0  0
    3.5581   -0.3563    0.0000 N   0  0  0  0  0  0  0  0  0  0  0  0
    2.7512   -0.1848    0.0000 C   0  0  0  0  0  0  0  0  0  0  0  0
    2.0367   -0.5973    0.0000 C   0  0  0  0  0  0  0  0  0  0  0  0
    1.3222   -0.1848    0.0000 C   0  0  0  0  0  0  0  0  0  0  0  0
    1.3222    0.6402    0.0000 C   0  0  0  0  0  0  0  0  0  0  0  0
    2.0367    1.0527    0.0000 C   0  0  0  0  0  0  0  0  0  0  0  0
    2.7512    0.6402    0.0000 C   0  0  0  0  0  0  0  0  0  0  0  0
    3.4656    1.0527    0.0000 Cl  0  0  0  0  0  0  0  0  0  0  0  0
    2.0367   -1.4223    0.0000 N   0  0  0  0  0  0  0  0  0  0  0  0
    2.7041   -1.9072    0.0000 C   0  0  0  0  0  0  0  0  0  0  0  0
    2.4492   -2.6919    0.0000 C   0  0  0  0  0  0  0  0  0  0  0  0
    1.6242   -2.6919    0.0000 C   0  0  0  0  0  0  0  0  0  0  0  0
    1.3693   -1.9072    0.0000 C   0  0  0  0  0  0  0  0  0  0  0  0
    4.6201   -1.3125    0.0000 C   0  0  0  0  0  0  0  0  0  0  0  0
    5.1721   -0.6994    0.0000 C   0  0  0  0  0  0  0  0  0  0  0  0
    5.9791   -0.8709    0.0000 C   0  0  0  0  0  0  0  0  0  0  0  0
    6.5311   -0.2578    0.0000 O   0  0  0  0  0  0  0  0  0  0  0  0
    6.2340   -1.6555    0.0000 C   0  0  0  0  0  0  0  0  0  0  0  0
    5.6820   -2.2686    0.0000 C   0  0  0  0  0  0  0  0  0  0  0  0
    4.8750   -2.0971    0.0000 C   0  0  0  0  0  0  0  0  0  0  0  0
  1  2  1  0  0  0  0
  2  3  2  0  0  0  0
  2  4  1  0  0  0  0
  4  5  1  0  0  0  0
  5  6  1  0  0  0  0
  6  7  2  0  0  0  0
  7  8  1  0  0  0  0
  8  9  2  0  0  0  0
  9 10  1  0  0  0  0
 10 11  2  0  0  0  0
  6 11  1  0  0  0  0
 11 12  1  0  0  0  0
  7 13  1  0  0  0  0
 13 14  1  0  0  0  0
 14 15  1  0  0  0  0
 15 16  1  0  0  0  0
 16 17  1  0  0  0  0
 13 17  1  0  0  0  0
  4 18  1  0  0  0  0
 18 19  2  0  0  0  0
 19 20  1  0  0  0  0
 20 21  1  0  0  0  0
 20 22  2  0  0  0  0
 22 23  1  0  0  0  0
 23 24  2  0  0  0  0
 18 24  1  0  0  0  0
M  END
> <ID>
CPD_3125

$$$$
CPD_3130
  Mrv1822 09091914012D          

 28 30  0  0  0  0            999 V2000
    0.7145   -0.4125    0.0000 C   0  0  0  0  0  0  0  0  0  0  0  0
    0.7145   -1.2375    0.0000 C   0  0  0  0  0  0  0  0  0  0  0  0
    1.4289   -1.6500    0.0000 C   0  0  0  0  0  0  0  0  0  0  0  0
    2.1434   -1.2375    0.0000 N   0  0  0  0  0  0  0  0  0  0  0  0
    2.8579   -1.6500    0.0000 C   0  0  0  0  0  0  0  0  0  0  0  0
    2.8579   -2.4750    0.0000 C   0  0  0  0  0  0  0  0  0  0  0  0
    2.1434   -2.8875    0.0000 O   0  0  0  0  0  0  0  0  0  0  0  0
    3.5724   -2.8875    0.0000 O   0  0  0  0  0  0  0  0  0  0  0  0
    3.5724   -1.2375    0.0000 C   0  0  0  0  0  0  0  0  0  0  0  0
    3.5724   -0.4125    0.0000 C   0  0  0  0  0  0  0  0  0  0  0  0
    4.2868   -0.0000    0.0000 C   0  0  0  0  0  0  0  0  0  0  0  0
    4.2868    0.8250    0.0000 O   0  0  0  0  0  0  0  0  0  0  0  0
    5.0013   -0.4125    0.0000 C   0  0  0  0  0  0  0  0  0  0  0  0
    5.0013   -1.2375    0.0000 C   0  0  0  0  0  0  0  0  0  0  0  0
    4.2868   -1.6500    0.0000 C   0  0  0  0  0  0  0  0  0  0  0  0
    1.4289   -2.4750    0.0000 C   0  0  0  0  0  0  0  0  0  0  0  0
    0.7145   -2.8875    0.0000 C   0  0  0  0  0  0  0  0  0  0  0  0
    0.0000   -2.4750    0.0000 C   0  0  0  0  0  0  0  0  0  0  0  0
    0.0000   -1.6500    0.0000 C   0  0  0  0  0  0  0  0  0  0  0  0
    0.7145   -3.7125    0.0000 C   0  0  0  0  0  0  0  0  0  0  0  0
    1.4289   -4.1250    0.0000 C   0  0  0  0  0  0  0  0  0  0  0  0
    1.4289   -4.9500    0.0000 C   0  0  0  0  0  0  0  0  0  0  0  0
    2.1434   -5.3625    0.0000 F   0  0  0  0  0  0  0  0  0  0  0  0
    0.7145   -5.3625    0.0000 C   0  0  0  0  0  0  0  0  0  0  0  0
   -0.0000   -4.9500    0.0000 C   0  0  0  0  0  0  0  0  0  0  0  0
    0.0000   -4.1250    0.0000 C   0  0  0  0  0  0  0  0  0  0  0  0
    0.7145   -6.1875    0.0000 C   0  0  0  0  0  0  0  0  0  0  0  0
    0.7145   -7.0125    0.0000 N   0  0  0  0  0  0  0  0  0  0  0  0
  1  2  1  0  0  0  0
  2  3  2  0  0  0  0
  3  4  1  0  0  0  0
  4  5  1  0  0  0  0
  5  6  1  0  0  0  0
  6  7  1  0  0  0  0
  6  8  2  0  0  0  0
  5  9  1  0  0  0  0
  9 10  2  0  0  0  0
 10 11  1  0  0  0  0
 11 12  1  0  0  0  0
 11 13  2  0  0  0  0
 13 14  1  0  0  0  0
 14 15  2  0  0  0  0
  9 15  1  0  0  0  0
  3 16  1  0  0  0  0
 16 17  2  0  0  0  0
 17 18  1  0  0  0  0
 18 19  2  0  0  0  0
  2 19  1  0  0  0  0
 17 20  1  0  0  0  0
 20 21  2  0  0  0  0
 21 22  1  0  0  0  0
 22 23  1  0  0  0  0
 22 24  2  0  0  0  0
 24 25  1  0  0  0  0
 25 26  2  0  0  0  0
 20 26  1  0  0  0  0
 24 27  1  0  0  0  0
 27 28  3  0  0  0  0
M  END
> <ID>
CPD_3130

$$$$
CPD_3135
  Mrv1822 09091914012D          

 26 28  0  0  0  0            999 V2000
    1.4289   -1.6500    0.0000 N   0  0  0  0  0  0  0  0  0  0  0  0
    1.4289   -2.4750    0.0000 C   0  0  0  0  0  0  0  0  0  0  0  0
    2.1434   -2.8875    0.0000 C   0  0  0  0  0  0  0  0  0  0  0  0
    2.8579   -2.4750    0.0000 O   0  0  0  0  0  0  0  0  0  0  0  0
    3.5724   -2.8875    0.0000 C   0  0  0  0  0  0  0  0  0  0  0  0
    4.2868   -2.4750    0.0000 C   0  0  0  0  0  0  0  0  0  0  0  0
    5.0013   -2.8875    0.0000 C   0  0  0  0  0  0  0  0  0  0  0  0
    5.0013   -3.7125    0.0000 C   0  0  0  0  0  0  0  0  0  0  0  0
    4.2868   -4.1250    0.0000 C   0  0  0  0  0  0  0  0  0  0  0  0
    3.5724   -3.7125    0.0000 C   0  0  0  0  0  0  0  0  0  0  0  0
    2.1434   -3.7125    0.0000 C   0  0  0  0  0  0  0  0  0  0  0  0
    1.4289   -4.1250    0.0000 C   0  0  0  0  0  0  0  0  0  0  0  0
    0.7145   -3.7125    0.0000 C   0  0  0  0  0  0  0  0  0  0  0  0
    0.0000   -4.1250    0.0000 N   0  0  0  0  0  0  0  0  0  0  0  0
    0.0000   -4.9500    0.0000 C   0  0  0  0  0  0  0  0  0  0  0  0
    0.7145   -5.3625    0.0000 C   0  0  0  0  0  0  0  0  0  0  0  0
    0.7145   -6.1875    0.0000 O   0  0  0  0  0  0  0  0  0  0  0  0
    1.4289   -4.9500    0.0000 O   0  0  0  0  0  0  0  0  0  0  0  0
   -0.7145   -5.3625    0.0000 C   0  0  0  0  0  0  0  0  0  0  0  0
   -0.7145   -6.1875    0.0000 C   0  0  0  0  0  0  0  0  0  0  0  0
   -1.4289   -6.6000    0.0000 C   0  0  0  0  0  0  0  0  0  0  0  0
   -1.4289   -7.4250    0.0000 O   0  0  0  0  0  0  0  0  0  0  0  0
   -2.1434   -6.1875    0.0000 C   0  0  0  0  0  0  0  0  0  0  0  0
   -2.1434   -5.3625    0.0000 C   0  0  0  0  0  0  0  0  0  0  0  0
   -1.4289   -4.9500    0.0000 C   0  0  0  0  0  0  0  0  0  0  0  0
    0.7145   -2.8875    0.0000 C   0  0  0  0  0  0  0  0  0  0  0  0
  1  2  1  0  0  0  0
  2  3  2  0  0  0  0
  3  4  1  0  0  0  0
  4  5  1  0  0  0  0
  5  6  2  0  0  0  0
  6  7  1  0  0  0  0
  7  8  2  0  0  0  0
  8  9  1  0  0  0  0
  9 10  2  0  0  0  0
  5 10  1  0  0  0  0
  3 11  1  0  0  0  0
 11 12  2  0  0  0  0
 12 13  1  0  0  0  0
 13 14  1  0  0  0  0
 14 15  1  0  0  0  0
 15 16  1  0  0  0  0
 16 17  1  0  0  0  0
 16 18  2  0  0  0  0
 15 19  1  0  0  0  0
 19 20  2  0  0  0  0
 20 21  1  0  0  0  0
 21 22  1  0  0  0  0
 21 23  2  0  0  0  0
 23 24  1  0  0  0  0
 24 25  2  0  0  0  0
 19 25  1  0  0  0  0
 13 26  2  0  0  0  0
  2 26  1  0  0  0  0
M  END
> <ID>
CPD_3135

$$$$
CPD_3140
  Mrv1822 09091914012D          

 21 23  0  0  0  0            999 V2000
    0.1536    1.3672    0.0000 C   0  0  0  0  0  0  0  0  0  0  0  0
   -0.3984    0.7541    0.0000 C   0  0  0  0  0  0  0  0  0  0  0  0
   -1.2054    0.9256    0.0000 O   0  0  0  0  0  0  0  0  0  0  0  0
   -0.1435   -0.0305    0.0000 N   0  0  0  0  0  0  0  0  0  0  0  0
   -0.6284   -0.6979    0.0000 C   0  0  0  0  0  0  0  0  0  0  0  0
   -0.1435   -1.3654    0.0000 C   0  0  0  0  0  0  0  0  0  0  0  0
   -0.3984   -2.1500    0.0000 N   0  0  0  0  0  0  0  0  0  0  0  0
    0.1536   -2.7631    0.0000 C   0  0  0  0  0  0  0  0  0  0  0  0
    0.4626   -3.5280    0.0000 C   0  0  0  0  0  0  0  0  0  0  0  0
   -0.3543   -3.4132    0.0000 C   0  0  0  0  0  0  0  0  0  0  0  0
    0.8532   -2.3259    0.0000 C   0  0  0  0  0  0  0  0  0  0  0  0
    1.5529   -1.8887    0.0000 C   0  0  0  0  0  0  0  0  0  0  0  0
    1.2904   -3.0256    0.0000 C   0  0  0  0  0  0  0  0  0  0  0  0
    0.4160   -1.6263    0.0000 C   0  0  0  0  0  0  0  0  0  0  0  0
    0.6411   -1.1104    0.0000 C   0  0  0  0  0  0  0  0  0  0  0  0
    0.6411   -0.2854    0.0000 C   0  0  0  0  0  0  0  0  0  0  0  0
    1.3556    0.1271    0.0000 C   0  0  0  0  0  0  0  0  0  0  0  0
    1.3556    0.9521    0.0000 C   0  0  0  0  0  0  0  0  0  0  0  0
    2.0701   -0.2854    0.0000 C   0  0  0  0  0  0  0  0  0  0  0  0
    2.0701   -1.1104    0.0000 C   0  0  0  0  0  0  0  0  0  0  0  0
    1.3556   -1.5229    0.0000 C   0  0  0  0  0  0  0  0  0  0  0  0
  1  2  1  0  0  0  0
  2  3  2  0  0  0  0
  2  4  1  0  0  0  0
  4  5  1  0  0  0  0
  5  6  2  0  0  0  0
  6  7  1  0  0  0  0
  7  8  1  0  0  0  0
  8  9  1  0  0  0  0
  9 10  1  0  0  0  0
  8 10  1  0  0  0  0
  8 11  1  0  0  0  0
 11 12  1  0  0  0  0
 11 13  1  0  0  0  0
 11 14  1  0  0  0  0
  6 15  1  0  0  0  0
 15 16  2  0  0  0  0
  4 16  1  0  0  0  0
 16 17  1  0  0  0  0
 17 18  1  0  0  0  0
 17 19  2  0  0  0  0
 19 20  1  0  0  0  0
 20 21  2  0  0  0  0
 15 21  1  0  0  0  0
M  END
> <ID>
CPD_3140

$$$$
CPD_3145
  Mrv1822 09091914012D          

 19 20  0  0  0  0            999 V2000
   -0.5282    4.9963    0.0000 C   0  0  0  0  0  0  0  0  0  0  0  0
   -0.6715    4.1838    0.0000 O   0  0  0  0  0  0  0  0  0  0  0  0
   -1.4468    3.9016    0.0000 C   0  0  0  0  0  0  0  0  0  0  0  0
   -1.5900    3.0892    0.0000 C   0  0  0  0  0  0  0  0  0  0  0  0
   -2.3653    2.8070    0.0000 C   0  0  0  0  0  0  0  0  0  0  0  0
   -2.5085    1.9945    0.0000 N   0  0  0  0  0  0  0  0  0  0  0  0
   -1.8765    1.4642    0.0000 C   0  0  0  0  0  0  0  0  0  0  0  0
   -1.4640    0.7498    0.0000 C   0  0  0  0  0  0  0  0  0  0  0  0
   -2.2890    0.7498    0.0000 C   0  0  0  0  0  0  0  0  0  0  0  0
   -1.2445    1.9945    0.0000 C   0  0  0  0  0  0  0  0  0  0  0  0
   -0.6126    2.5248    0.0000 C   0  0  0  0  0  0  0  0  0  0  0  0
   -0.7142    1.3625    0.0000 C   0  0  0  0  0  0  0  0  0  0  0  0
   -1.7748    2.6265    0.0000 C   0  0  0  0  0  0  0  0  0  0  0  0
   -2.9972    3.3373    0.0000 C   0  0  0  0  0  0  0  0  0  0  0  0
   -3.7725    3.0551    0.0000 C   0  0  0  0  0  0  0  0  0  0  0  0
   -4.4045    3.5854    0.0000 N   0  0  0  0  0  0  0  0  0  0  0  0
   -2.8540    4.1498    0.0000 C   0  0  0  0  0  0  0  0  0  0  0  0
   -3.4860    4.6801    0.0000 F   0  0  0  0  0  0  0  0  0  0  0  0
   -2.0787    4.4319    0.0000 C   0  0  0  0  0  0  0  0  0  0  0  0
  1  2  1  0  0  0  0
  2  3  1  0  0  0  0
  3  4  2  0  0  0  0
  4  5  1  0  0  0  0
  5  6  1  0  0  0  0
  6  7  1  0  0  0  0
  7  8  1  0  0  0  0
  8  9  1  0  0  0  0
  7  9  1  0  0  0  0
  7 10  1  0  0  0  0
 10 11  1  0  0  0  0
 10 12  1  0  0  0  0
 10 13  1  0  0  0  0
  5 14  2  0  0  0  0
 14 15  1  0  0  0  0
 15 16  1  0  0  0  0
 14 17  1  0  0  0  0
 17 18  1  0  0  0  0
 17 19  2  0  0  0  0
  3 19  1  0  0  0  0
M  END
> <ID>
CPD_3145

$$$$
CPD_3150
  Mrv1822 09091914012D          

 19 21  0  0  0  0            999 V2000
   -1.6249   -2.7615    0.0000 C   0  0  0  0  0  0  0  0  0  0  0  0
   -0.8125   -2.6183    0.0000 C   0  0  0  0  0  0  0  0  0  0  0  0
   -0.6692   -3.4307    0.0000 C   0  0  0  0  0  0  0  0  0  0  0  0
   -0.9557   -1.8058    0.0000 C   0  0  0  0  0  0  0  0  0  0  0  0
    0.0000   -2.4750    0.0000 C   0  0  0  0  0  0  0  0  0  0  0  0
    0.8125   -2.6183    0.0000 C   0  0  0  0  0  0  0  0  0  0  0  0
    0.2822   -3.2502    0.0000 C   0  0  0  0  0  0  0  0  0  0  0  0
    0.0000   -1.6500    0.0000 N   0  0  0  0  0  0  0  0  0  0  0  0
    0.7145   -1.2375    0.0000 C   0  0  0  0  0  0  0  0  0  0  0  0
    0.7145   -0.4125    0.0000 C   0  0  0  0  0  0  0  0  0  0  0  0
    1.4289    0.0000    0.0000 C   0  0  0  0  0  0  0  0  0  0  0  0
    2.1434   -0.4125    0.0000 C   0  0  0  0  0  0  0  0  0  0  0  0
    2.8579    0.0000    0.0000 C   0  0  0  0  0  0  0  0  0  0  0  0
    3.5724   -0.4125    0.0000 C   0  0  0  0  0  0  0  0  0  0  0  0
    3.5724   -1.2375    0.0000 N   0  0  0  0  0  0  0  0  0  0  0  0
    2.8579   -1.6500    0.0000 C   0  0  0  0  0  0  0  0  0  0  0  0
    2.8579   -2.4750    0.0000 O   0  0  0  0  0  0  0  0  0  0  0  0
    2.1434   -1.2375    0.0000 C   0  0  0  0  0  0  0  0  0  0  0  0
    1.4289   -1.6500    0.0000 C   0  0  0  0  0  0  0  0  0  0  0  0
  1  2  1  0  0  0  0
  2  3  1  0  0  0  0
  2  4  1  0  0  0  0
  2  5  1  0  0  0  0
  5  6  1  0  0  0  0
  6  7  1  0  0  0  0
  5  7  1  0  0  0  0
  5  8  1  0  0  0  0
  8  9  1  0  0  0  0
  9 10  2  0  0  0  0
 10 11  1  0  0  0  0
 11 12  2  0  0  0  0
 12 13  1  0  0  0  0
 13 14  1  0  0  0  0
 14 15  1  0  0  0  0
 15 16  1  0  0  0  0
 16 17  2  0  0  0  0
 16 18  1  0  0  0  0
 12 18  1  0  0  0  0
 18 19  2  0  0  0  0
  9 19  1  0  0  0  0
M  END
> <ID>
CPD_3150

$$$$
CPD_3155
  Mrv1822 09091914012D          

 36 38  0  0  0  0            999 V2000
   -0.1067    3.2384    0.0000 C   0  0  0  0  0  0  0  0  0  0  0  0
   -0.1067    2.4134    0.0000 C   0  0  0  0  0  0  0  0  0  0  0  0
   -0.8212    2.0009    0.0000 O   0  0  0  0  0  0  0  0  0  0  0  0
   -0.8212    1.1759    0.0000 C   0  0  0  0  0  0  0  0  0  0  0  0
   -1.5356    0.7634    0.0000 O   0  0  0  0  0  0  0  0  0  0  0  0
   -0.1067    0.7634    0.0000 C   0  0  0  0  0  0  0  0  0  0  0  0
   -0.1067   -0.0616    0.0000 C   0  0  0  0  0  0  0  0  0  0  0  0
   -0.8212   -0.4741    0.0000 C   0  0  0  0  0  0  0  0  0  0  0  0
    0.6078   -0.4741    0.0000 N   0  0  0  0  0  0  0  0  0  0  0  0
    1.3222   -0.0616    0.0000 C   0  0  0  0  0  0  0  0  0  0  0  0
    1.3222    0.7634    0.0000 N   0  0  0  0  0  0  0  0  0  0  0  0
    0.6078    1.1759    0.0000 C   0  0  0  0  0  0  0  0  0  0  0  0
    2.0367   -0.4741    0.0000 N   0  0  0  0  0  0  0  0  0  0  0  0
    2.0367   -1.2991    0.0000 C   0  0  0  0  0  0  0  0  0  0  0  0
    1.3693   -1.7840    0.0000 C   0  0  0  0  0  0  0  0  0  0  0  0
    0.5846   -1.5291    0.0000 C   0  0  0  0  0  0  0  0  0  0  0  0
    0.4131   -0.7221    0.0000 F   0  0  0  0  0  0  0  0  0  0  0  0
   -0.0284   -2.0811    0.0000 F   0  0  0  0  0  0  0  0  0  0  0  0
    1.6242   -2.5687    0.0000 N   0  0  0  0  0  0  0  0  0  0  0  0
    2.4492   -2.5687    0.0000 N   0  0  0  0  0  0  0  0  0  0  0  0
    2.7041   -1.7840    0.0000 C   0  0  0  0  0  0  0  0  0  0  0  0
    3.4888   -1.5291    0.0000 C   0  0  0  0  0  0  0  0  0  0  0  0
    4.1019   -2.0811    0.0000 F   0  0  0  0  0  0  0  0  0  0  0  0
    3.6603   -0.7221    0.0000 F   0  0  0  0  0  0  0  0  0  0  0  0
    1.1393   -3.2361    0.0000 C   0  0  0  0  0  0  0  0  0  0  0  0
    0.3188   -3.1499    0.0000 C   0  0  0  0  0  0  0  0  0  0  0  0
    1.4748   -3.9898    0.0000 C   0  0  0  0  0  0  0  0  0  0  0  0
    2.2953   -4.0760    0.0000 O   0  0  0  0  0  0  0  0  0  0  0  0
    0.9899   -4.6572    0.0000 O   0  0  0  0  0  0  0  0  0  0  0  0
    2.7512   -0.0616    0.0000 C   0  0  0  0  0  0  0  0  0  0  0  0
    2.7512    0.7634    0.0000 C   0  0  0  0  0  0  0  0  0  0  0  0
    3.4656    1.1759    0.0000 C   0  0  0  0  0  0  0  0  0  0  0  0
    4.1801    0.7634    0.0000 C   0  0  0  0  0  0  0  0  0  0  0  0
    4.8946    1.1759    0.0000 Cl  0  0  0  0  0  0  0  0  0  0  0  0
    4.1801   -0.0616    0.0000 C   0  0  0  0  0  0  0  0  0  0  0  0
    3.4656   -0.4741    0.0000 C   0  0  0  0  0  0  0  0  0  0  0  0
  1  2  1  0  0  0  0
  2  3  1  0  0  0  0
  3  4  1  0  0  0  0
  4  5  2  0  0  0  0
  4  6  1  0  0  0  0
  6  7  2  0  0  0  0
  7  8  1  0  0  0  0
  7  9  1  0  0  0  0
  9 10  2  0  0  0  0
 10 11  1  0  0  0  0
 11 12  2  0  0  0  0
  6 12  1  0  0  0  0
 10 13  1  0  0  0  0
 13 14  1  0  0  0  0
 14 15  2  0  0  0  0
 15 16  1  0  0  0  0
 16 17  1  0  0  0  0
 16 18  1  0  0  0  0
 15 19  1  0  0  0  0
 19 20  1  0  0  0  0
 20 21  2  0  0  0  0
 14 21  1  0  0  0  0
 21 22  1  0  0  0  0
 22 23  1  0  0  0  0
 22 24  1  0  0  0  0
 19 25  1  0  0  0  0
 25 26  1  0  0  0  0
 25 27  1  0  0  0  0
 27 28  1  0  0  0  0
 27 29  2  0  0  0  0
 13 30  1  0  0  0  0
 30 31  2  0  0  0  0
 31 32  1  0  0  0  0
 32 33  2  0  0  0  0
 33 34  1  0  0  0  0
 33 35  1  0  0  0  0
 35 36  2  0  0  0  0
 30 36  1  0  0  0  0
M  END
> <ID>
CPD_3155

$$$$
CPD_3160
  Mrv1822 09091914012D          

 36 39  0  0  0  0            999 V2000
   -2.9646    3.2384    0.0000 C   0  0  0  0  0  0  0  0  0  0  0  0
   -2.2501    3.6509    0.0000 C   0  0  0  0  0  0  0  0  0  0  0  0
   -1.5356    3.2384    0.0000 O   0  0  0  0  0  0  0  0  0  0  0  0
   -0.8212    3.6509    0.0000 C   0  0  0  0  0  0  0  0  0  0  0  0
   -0.8212    4.4759    0.0000 O   0  0  0  0  0  0  0  0  0  0  0  0
   -0.1067    3.2384    0.0000 C   0  0  0  0  0  0  0  0  0  0  0  0
    0.6078    3.6509    0.0000 C   0  0  0  0  0  0  0  0  0  0  0  0
    0.6078    4.4759    0.0000 C   0  0  0  0  0  0  0  0  0  0  0  0
    1.3222    3.2384    0.0000 N   0  0  0  0  0  0  0  0  0  0  0  0
    1.3222    2.4134    0.0000 C   0  0  0  0  0  0  0  0  0  0  0  0
    0.6078    2.0009    0.0000 N   0  0  0  0  0  0  0  0  0  0  0  0
   -0.1067    2.4134    0.0000 C   0  0  0  0  0  0  0  0  0  0  0  0
    2.0367    2.0009    0.0000 N   0  0  0  0  0  0  0  0  0  0  0  0
    2.0367    1.1759    0.0000 C   0  0  0  0  0  0  0  0  0  0  0  0
    2.7512    0.7634    0.0000 C   0  0  0  0  0  0  0  0  0  0  0  0
    2.7512   -0.0616    0.0000 C   0  0  0  0  0  0  0  0  0  0  0  0
    2.0367   -0.4741    0.0000 C   0  0  0  0  0  0  0  0  0  0  0  0
    2.0367   -1.2991    0.0000 Cl  0  0  0  0  0  0  0  0  0  0  0  0
    1.3222   -0.0616    0.0000 C   0  0  0  0  0  0  0  0  0  0  0  0
    1.3222    0.7634    0.0000 C   0  0  0  0  0  0  0  0  0  0  0  0
    2.7512    2.4134    0.0000 C   0  0  0  0  0  0  0  0  0  0  0  0
    2.7512    3.2384    0.0000 C   0  0  0  0  0  0  0  0  0  0  0  0
    3.4656    3.6509    0.0000 C   0  0  0  0  0  0  0  0  0  0  0  0
    3.4656    4.4759    0.0000 N   0  0  0  0  0  0  0  0  0  0  0  0
    4.1801    3.2384    0.0000 C   0  0  0  0  0  0  0  0  0  0  0  0
    4.1801    2.4134    0.0000 C   0  0  0  0  0  0  0  0  0  0  0  0
    3.4656    2.0009    0.0000 C   0  0  0  0  0  0  0  0  0  0  0  0
    3.4656    1.1759    0.0000 O   0  0  0  0  0  0  0  0  0  0  0  0
    4.1801    0.7634    0.0000 C   0  0  0  0  0  0  0  0  0  0  0  0
    4.1801   -0.0616    0.0000 C   0  0  0  0  0  0  0  0  0  0  0  0
    4.8476   -0.5465    0.0000 C   0  0  0  0  0  0  0  0  0  0  0  0
    5.6322   -0.2916    0.0000 C   0  0  0  0  0  0  0  0  0  0  0  0
    4.5926   -1.3312    0.0000 N   0  0  0  0  0  0  0  0  0  0  0  0
    5.0775   -1.9986    0.0000 C   0  0  0  0  0  0  0  0  0  0  0  0
    3.7676   -1.3312    0.0000 N   0  0  0  0  0  0  0  0  0  0  0  0
    3.5127   -0.5465    0.0000 C   0  0  0  0  0  0  0  0  0  0  0  0
  1  2  1  0  0  0  0
  2  3  1  0  0  0  0
  3  4  1  0  0  0  0
  4  5  2  0  0  0  0
  4  6  1  0  0  0  0
  6  7  2  0  0  0  0
  7  8  1  0  0  0  0
  7  9  1  0  0  0  0
  9 10  2  0  0  0  0
 10 11  1  0  0  0  0
 11 12  2  0  0  0  0
  6 12  1  0  0  0  0
 10 13  1  0  0  0  0
 13 14  1  0  0  0  0
 14 15  2  0  0  0  0
 15 16  1  0  0  0  0
 16 17  2  0  0  0  0
 17 18  1  0  0  0  0
 17 19  1  0  0  0  0
 19 20  2  0  0  0  0
 14 20  1  0  0  0  0
 13 21  1  0  0  0  0
 21 22  2  0  0  0  0
 22 23  1  0  0  0  0
 23 24  1  0  0  0  0
 23 25  2  0  0  0  0
 25 26  1  0  0  0  0
 26 27  2  0  0  0  0
 21 27  1  0  0  0  0
 27 28  1  0  0  0  0
 28 29  1  0  0  0  0
 29 30  1  0  0  0  0
 30 31  2  0  0  0  0
 31 32  1  0  0  0  0
 31 33  1  0  0  0  0
 33 34  1  0  0  0  0
 33 35  1  0  0  0  0
 35 36  2  0  0  0  0
 30 36  1  0  0  0  0
M  END
> <ID>
CPD_3160

$$$$
CPD_3165
  Mrv1822 09091914012D          

 33 36  0  0  0  0            999 V2000
    0.8838   -2.1500    0.0000 C   0  0  0  0  0  0  0  0  0  0  0  0
    1.1387   -1.3654    0.0000 N   0  0  0  0  0  0  0  0  0  0  0  0
    0.6538   -0.6979    0.0000 C   0  0  0  0  0  0  0  0  0  0  0  0
   -0.1712   -0.6979    0.0000 O   0  0  0  0  0  0  0  0  0  0  0  0
    1.1387   -0.0305    0.0000 C   0  0  0  0  0  0  0  0  0  0  0  0
    0.8838    0.7541    0.0000 N   0  0  0  0  0  0  0  0  0  0  0  0
    0.0768    0.9256    0.0000 C   0  0  0  0  0  0  0  0  0  0  0  0
   -0.4752    0.3126    0.0000 C   0  0  0  0  0  0  0  0  0  0  0  0
   -1.2822    0.4841    0.0000 C   0  0  0  0  0  0  0  0  0  0  0  0
   -1.5371    1.2687    0.0000 C   0  0  0  0  0  0  0  0  0  0  0  0
   -0.9851    1.8818    0.0000 C   0  0  0  0  0  0  0  0  0  0  0  0
   -0.1781    1.7103    0.0000 C   0  0  0  0  0  0  0  0  0  0  0  0
   -2.3441    1.4402    0.0000 C   0  0  0  0  0  0  0  0  0  0  0  0
   -2.8961    0.8271    0.0000 O   0  0  0  0  0  0  0  0  0  0  0  0
   -2.5990    2.2248    0.0000 N   0  0  0  0  0  0  0  0  0  0  0  0
   -3.4060    2.3964    0.0000 C   0  0  0  0  0  0  0  0  0  0  0  0
   -3.6610    3.1810    0.0000 C   0  0  0  0  0  0  0  0  0  0  0  0
   -4.4679    3.3525    0.0000 C   0  0  0  0  0  0  0  0  0  0  0  0
   -4.7229    4.1371    0.0000 C   0  0  0  0  0  0  0  0  0  0  0  0
   -4.1708    4.7502    0.0000 C   0  0  0  0  0  0  0  0  0  0  0  0
   -3.3639    4.5787    0.0000 C   0  0  0  0  0  0  0  0  0  0  0  0
   -2.8118    5.1918    0.0000 C   0  0  0  0  0  0  0  0  0  0  0  0
   -3.1089    3.7941    0.0000 C   0  0  0  0  0  0  0  0  0  0  0  0
    1.9233   -0.2854    0.0000 C   0  0  0  0  0  0  0  0  0  0  0  0
    2.6378    0.1271    0.0000 C   0  0  0  0  0  0  0  0  0  0  0  0
    3.3523   -0.2854    0.0000 C   0  0  0  0  0  0  0  0  0  0  0  0
    3.3523   -1.1104    0.0000 C   0  0  0  0  0  0  0  0  0  0  0  0
    2.6378   -1.5229    0.0000 C   0  0  0  0  0  0  0  0  0  0  0  0
    1.9233   -1.1104    0.0000 C   0  0  0  0  0  0  0  0  0  0  0  0
    2.6378   -2.3479    0.0000 C   0  0  0  0  0  0  0  0  0  0  0  0
    2.6378   -3.1729    0.0000 F   0  0  0  0  0  0  0  0  0  0  0  0
    1.8128   -2.3479    0.0000 F   0  0  0  0  0  0  0  0  0  0  0  0
    3.4628   -2.3479    0.0000 F   0  0  0  0  0  0  0  0  0  0  0  0
  1  2  1  0  0  0  0
  2  3  1  0  0  0  0
  3  4  2  0  0  0  0
  3  5  1  0  0  0  0
  5  6  1  0  0  0  0
  6  7  1  0  0  0  0
  7  8  2  0  0  0  0
  8  9  1  0  0  0  0
  9 10  2  0  0  0  0
 10 11  1  0  0  0  0
 11 12  2  0  0  0  0
  7 12  1  0  0  0  0
 10 13  1  0  0  0  0
 13 14  2  0  0  0  0
 13 15  1  0  0  0  0
 15 16  1  0  0  0  0
 16 17  1  0  0  0  0
 17 18  2  0  0  0  0
 18 19  1  0  0  0  0
 19 20  2  0  0  0  0
 20 21  1  0  0  0  0
 21 22  1  0  0  0  0
 21 23  2  0  0  0  0
 17 23  1  0  0  0  0
  5 24  1  0  0  0  0
 24 25  2  0  0  0  0
 25 26  1  0  0  0  0
 26 27  2  0  0  0  0
 27 28  1  0  0  0  0
 28 29  2  0  0  0  0
  2 29  1  0  0  0  0
 24 29  1  0  0  0  0
 28 30  1  0  0  0  0
 30 31  1  0  0  0  0
 30 32  1  0  0  0  0
 30 33  1  0  0  0  0
M  END
> <ID>
CPD_3165

$$$$
CPD_3170
  Mrv1822 09091914012D          

 27 29  0  0  0  0            999 V2000
    0.8838   -2.1500    0.0000 C   0  0  0  0  0  0  0  0  0  0  0  0
    1.1387   -1.3654    0.0000 N   0  0  0  0  0  0  0  0  0  0  0  0
    0.6538   -0.6979    0.0000 C   0  0  0  0  0  0  0  0  0  0  0  0
   -0.1712   -0.6979    0.0000 O   0  0  0  0  0  0  0  0  0  0  0  0
    1.1387   -0.0305    0.0000 C   0  0  0  0  0  0  0  0  0  0  0  0
    0.8838    0.7541    0.0000 N   0  0  0  0  0  0  0  0  0  0  0  0
    0.0768    0.9256    0.0000 C   0  0  0  0  0  0  0  0  0  0  0  0
   -0.4752    0.3126    0.0000 C   0  0  0  0  0  0  0  0  0  0  0  0
   -1.2822    0.4841    0.0000 C   0  0  0  0  0  0  0  0  0  0  0  0
   -1.5371    1.2687    0.0000 C   0  0  0  0  0  0  0  0  0  0  0  0
   -2.3441    1.4402    0.0000 Cl  0  0  0  0  0  0  0  0  0  0  0  0
   -0.9851    1.8818    0.0000 C   0  0  0  0  0  0  0  0  0  0  0  0
   -0.1781    1.7103    0.0000 C   0  0  0  0  0  0  0  0  0  0  0  0
    0.3739    2.3234    0.0000 C   0  0  0  0  0  0  0  0  0  0  0  0
    0.1190    3.1080    0.0000 C   0  0  0  0  0  0  0  0  0  0  0  0
   -0.6880    3.2795    0.0000 O   0  0  0  0  0  0  0  0  0  0  0  0
    0.6710    3.7211    0.0000 O   0  0  0  0  0  0  0  0  0  0  0  0
    1.9233   -0.2854    0.0000 C   0  0  0  0  0  0  0  0  0  0  0  0
    2.6378    0.1271    0.0000 C   0  0  0  0  0  0  0  0  0  0  0  0
    3.3523   -0.2854    0.0000 C   0  0  0  0  0  0  0  0  0  0  0  0
    3.3523   -1.1104    0.0000 C   0  0  0  0  0  0  0  0  0  0  0  0
    2.6378   -1.5229    0.0000 C   0  0  0  0  0  0  0  0  0  0  0  0
    1.9233   -1.1104    0.0000 C   0  0  0  0  0  0  0  0  0  0  0  0
    2.6378   -2.3479    0.0000 C   0  0  0  0  0  0  0  0  0  0  0  0
    2.6378   -3.1729    0.0000 F   0  0  0  0  0  0  0  0  0  0  0  0
    1.8128   -2.3479    0.0000 F   0  0  0  0  0  0  0  0  0  0  0  0
    3.4628   -2.3479    0.0000 F   0  0  0  0  0  0  0  0  0  0  0  0
  1  2  1  0  0  0  0
  2  3  1  0  0  0  0
  3  4  2  0  0  0  0
  3  5  1  0  0  0  0
  5  6  1  0  0  0  0
  6  7  1  0  0  0  0
  7  8  2  0  0  0  0
  8  9  1  0  0  0  0
  9 10  2  0  0  0  0
 10 11  1  0  0  0  0
 10 12  1  0  0  0  0
 12 13  2  0  0  0  0
  7 13  1  0  0  0  0
 13 14  1  0  0  0  0
 14 15  1  0  0  0  0
 15 16  1  0  0  0  0
 15 17  2  0  0  0  0
  5 18  1  0  0  0  0
 18 19  2  0  0  0  0
 19 20  1  0  0  0  0
 20 21  2  0  0  0  0
 21 22  1  0  0  0  0
 22 23  2  0  0  0  0
  2 23  1  0  0  0  0
 18 23  1  0  0  0  0
 22 24  1  0  0  0  0
 24 25  1  0  0  0  0
 24 26  1  0  0  0  0
 24 27  1  0  0  0  0
M  END
> <ID>
CPD_3170

$$$$
CPD_3175
  Mrv1822 09091914012D          

 31 34  0  0  0  0            999 V2000
    0.8838   -2.1500    0.0000 C   0  0  0  0  0  0  0  0  0  0  0  0
    1.1387   -1.3654    0.0000 N   0  0  0  0  0  0  0  0  0  0  0  0
    0.6538   -0.6979    0.0000 C   0  0  0  0  0  0  0  0  0  0  0  0
   -0.1712   -0.6979    0.0000 O   0  0  0  0  0  0  0  0  0  0  0  0
    1.1387   -0.0305    0.0000 C   0  0  0  0  0  0  0  0  0  0  0  0
    0.8838    0.7541    0.0000 N   0  0  0  0  0  0  0  0  0  0  0  0
    0.0768    0.9256    0.0000 C   0  0  0  0  0  0  0  0  0  0  0  0
   -0.1781    1.7103    0.0000 C   0  0  0  0  0  0  0  0  0  0  0  0
    0.3739    2.3234    0.0000 C   0  0  0  0  0  0  0  0  0  0  0  0
    0.1190    3.1080    0.0000 O   0  0  0  0  0  0  0  0  0  0  0  0
    1.1809    2.1518    0.0000 C   0  0  0  0  0  0  0  0  0  0  0  0
    1.7329    2.7649    0.0000 C   0  0  0  0  0  0  0  0  0  0  0  0
    2.5399    2.5934    0.0000 C   0  0  0  0  0  0  0  0  0  0  0  0
    2.7948    1.8088    0.0000 C   0  0  0  0  0  0  0  0  0  0  0  0
    2.2428    1.1957    0.0000 C   0  0  0  0  0  0  0  0  0  0  0  0
    1.4358    1.3672    0.0000 C   0  0  0  0  0  0  0  0  0  0  0  0
   -0.9851    1.8818    0.0000 C   0  0  0  0  0  0  0  0  0  0  0  0
   -1.2400    2.6664    0.0000 F   0  0  0  0  0  0  0  0  0  0  0  0
   -1.5371    1.2687    0.0000 C   0  0  0  0  0  0  0  0  0  0  0  0
   -1.2822    0.4841    0.0000 C   0  0  0  0  0  0  0  0  0  0  0  0
   -0.4752    0.3126    0.0000 C   0  0  0  0  0  0  0  0  0  0  0  0
    1.9233   -0.2854    0.0000 C   0  0  0  0  0  0  0  0  0  0  0  0
    2.6378    0.1271    0.0000 C   0  0  0  0  0  0  0  0  0  0  0  0
    3.3523   -0.2854    0.0000 C   0  0  0  0  0  0  0  0  0  0  0  0
    3.3523   -1.1104    0.0000 C   0  0  0  0  0  0  0  0  0  0  0  0
    2.6378   -1.5229    0.0000 C   0  0  0  0  0  0  0  0  0  0  0  0
    1.9233   -1.1104    0.0000 C   0  0  0  0  0  0  0  0  0  0  0  0
    2.6378   -2.3479    0.0000 C   0  0  0  0  0  0  0  0  0  0  0  0
    2.6378   -3.1729    0.0000 F   0  0  0  0  0  0  0  0  0  0  0  0
    1.8128   -2.3479    0.0000 F   0  0  0  0  0  0  0  0  0  0  0  0
    3.4628   -2.3479    0.0000 F   0  0  0  0  0  0  0  0  0  0  0  0
  1  2  1  0  0  0  0
  2  3  1  0  0  0  0
  3  4  2  0  0  0  0
  3  5  1  0  0  0  0
  5  6  1  0  0  0  0
  6  7  1  0  0  0  0
  7  8  2  0  0  0  0
  8  9  1  0  0  0  0
  9 10  2  0  0  0  0
  9 11  1  0  0  0  0
 11 12  2  0  0  0  0
 12 13  1  0  0  0  0
 13 14  2  0  0  0  0
 14 15  1  0  0  0  0
 15 16  2  0  0  0  0
 11 16  1  0  0  0  0
  8 17  1  0  0  0  0
 17 18  1  0  0  0  0
 17 19  2  0  0  0  0
 19 20  1  0  0  0  0
 20 21  2  0  0  0  0
  7 21  1  0  0  0  0
  5 22  1  0  0  0  0
 22 23  2  0  0  0  0
 23 24  1  0  0  0  0
 24 25  2  0  0  0  0
 25 26  1  0  0  0  0
 26 27  2  0  0  0  0
  2 27  1  0  0  0  0
 22 27  1  0  0  0  0
 26 28  1  0  0  0  0
 28 29  1  0  0  0  0
 28 30  1  0  0  0  0
 28 31  1  0  0  0  0
M  END
> <ID>
CPD_3175

$$$$
CPD_3180
  Mrv1822 09091914012D          

 33 37  0  0  0  0            999 V2000
   -0.3984    0.7541    0.0000 C   0  0  0  0  0  0  0  0  0  0  0  0
   -0.1435   -0.0305    0.0000 N   0  0  0  0  0  0  0  0  0  0  0  0
   -0.6284   -0.6979    0.0000 N   0  0  0  0  0  0  0  0  0  0  0  0
   -0.1435   -1.3654    0.0000 C   0  0  0  0  0  0  0  0  0  0  0  0
   -0.3984   -2.1500    0.0000 C   0  0  0  0  0  0  0  0  0  0  0  0
    0.0865   -2.8174    0.0000 N   0  0  0  0  0  0  0  0  0  0  0  0
   -0.3984   -3.4849    0.0000 C   0  0  0  0  0  0  0  0  0  0  0  0
   -1.1831   -3.2299    0.0000 N   0  0  0  0  0  0  0  0  0  0  0  0
   -1.1831   -2.4049    0.0000 O   0  0  0  0  0  0  0  0  0  0  0  0
   -0.1435   -4.2695    0.0000 C   0  0  0  0  0  0  0  0  0  0  0  0
    0.6635   -4.4410    0.0000 C   0  0  0  0  0  0  0  0  0  0  0  0
    0.9184   -5.2257    0.0000 C   0  0  0  0  0  0  0  0  0  0  0  0
    0.3664   -5.8387    0.0000 C   0  0  0  0  0  0  0  0  0  0  0  0
   -0.4406   -5.6672    0.0000 C   0  0  0  0  0  0  0  0  0  0  0  0
   -0.6955   -4.8826    0.0000 C   0  0  0  0  0  0  0  0  0  0  0  0
    0.6411   -1.1104    0.0000 C   0  0  0  0  0  0  0  0  0  0  0  0
    0.6411   -0.2854    0.0000 C   0  0  0  0  0  0  0  0  0  0  0  0
    1.3556    0.1271    0.0000 C   0  0  0  0  0  0  0  0  0  0  0  0
    2.0701   -0.2854    0.0000 C   0  0  0  0  0  0  0  0  0  0  0  0
    2.0701   -1.1104    0.0000 N   0  0  0  0  0  0  0  0  0  0  0  0
    1.3556   -1.5229    0.0000 C   0  0  0  0  0  0  0  0  0  0  0  0
    2.7845   -1.5229    0.0000 C   0  0  0  0  0  0  0  0  0  0  0  0
    3.4990   -1.1104    0.0000 C   0  0  0  0  0  0  0  0  0  0  0  0
    4.2135   -1.5229    0.0000 C   0  0  0  0  0  0  0  0  0  0  0  0
    4.9279   -1.1104    0.0000 O   0  0  0  0  0  0  0  0  0  0  0  0
    4.2135   -2.3479    0.0000 C   0  0  0  0  0  0  0  0  0  0  0  0
    3.4990   -2.7604    0.0000 C   0  0  0  0  0  0  0  0  0  0  0  0
    3.4990   -3.5854    0.0000 O   0  0  0  0  0  0  0  0  0  0  0  0
    4.2135   -3.9979    0.0000 C   0  0  0  0  0  0  0  0  0  0  0  0
    4.9279   -4.4104    0.0000 F   0  0  0  0  0  0  0  0  0  0  0  0
    3.8010   -4.7124    0.0000 F   0  0  0  0  0  0  0  0  0  0  0  0
    4.6260   -3.2835    0.0000 F   0  0  0  0  0  0  0  0  0  0  0  0
    2.7845   -2.3479    0.0000 C   0  0  0  0  0  0  0  0  0  0  0  0
  1  2  1  0  0  0  0
  2  3  1  0  0  0  0
  3  4  2  0  0  0  0
  4  5  1  0  0  0  0
  5  6  2  0  0  0  0
  6  7  1  0  0  0  0
  7  8  2  0  0  0  0
  8  9  1  0  0  0  0
  5  9  1  0  0  0  0
  7 10  1  0  0  0  0
 10 11  2  0  0  0  0
 11 12  1  0  0  0  0
 12 13  2  0  0  0  0
 13 14  1  0  0  0  0
 14 15  2  0  0  0  0
 10 15  1  0  0  0  0
  4 16  1  0  0  0  0
 16 17  2  0  0  0  0
  2 17  1  0  0  0  0
 17 18  1  0  0  0  0
 18 19  1  0  0  0  0
 19 20  1  0  0  0  0
 20 21  1  0  0  0  0
 16 21  1  0  0  0  0
 20 22  1  0  0  0  0
 22 23  2  0  0  0  0
 23 24  1  0  0  0  0
 24 25  1  0  0  0  0
 24 26  2  0  0  0  0
 26 27  1  0  0  0  0
 27 28  1  0  0  0  0
 28 29  1  0  0  0  0
 29 30  1  0  0  0  0
 29 31  1  0  0  0  0
 29 32  1  0  0  0  0
 27 33  2  0  0  0  0
 22 33  1  0  0  0  0
M  END
> <ID>
CPD_3180

$$$$
CPD_3185
  Mrv1822 09091914012D          

 33 38  0  0  0  0            999 V2000
   -0.3984    0.7541    0.0000 C   0  0  0  0  0  0  0  0  0  0  0  0
   -0.1435   -0.0305    0.0000 N   0  0  0  0  0  0  0  0  0  0  0  0
   -0.6284   -0.6979    0.0000 N   0  0  0  0  0  0  0  0  0  0  0  0
   -0.1435   -1.3654    0.0000 C   0  0  0  0  0  0  0  0  0  0  0  0
   -0.3984   -2.1500    0.0000 C   0  0  0  0  0  0  0  0  0  0  0  0
    0.0865   -2.8174    0.0000 N   0  0  0  0  0  0  0  0  0  0  0  0
   -0.3984   -3.4849    0.0000 C   0  0  0  0  0  0  0  0  0  0  0  0
   -1.1831   -3.2299    0.0000 N   0  0  0  0  0  0  0  0  0  0  0  0
   -1.1831   -2.4049    0.0000 O   0  0  0  0  0  0  0  0  0  0  0  0
   -0.1435   -4.2695    0.0000 C   0  0  0  0  0  0  0  0  0  0  0  0
    0.6635   -4.4410    0.0000 C   0  0  0  0  0  0  0  0  0  0  0  0
    0.9184   -5.2257    0.0000 C   0  0  0  0  0  0  0  0  0  0  0  0
    0.3664   -5.8387    0.0000 C   0  0  0  0  0  0  0  0  0  0  0  0
   -0.4406   -5.6672    0.0000 C   0  0  0  0  0  0  0  0  0  0  0  0
   -0.6955   -4.8826    0.0000 C   0  0  0  0  0  0  0  0  0  0  0  0
    0.6411   -1.1104    0.0000 C   0  0  0  0  0  0  0  0  0  0  0  0
    0.6411   -0.2854    0.0000 C   0  0  0  0  0  0  0  0  0  0  0  0
    1.3556    0.1271    0.0000 C   0  0  0  0  0  0  0  0  0  0  0  0
    2.0701   -0.2854    0.0000 C   0  0  0  0  0  0  0  0  0  0  0  0
    2.0701   -1.1104    0.0000 N   0  0  0  0  0  0  0  0  0  0  0  0
    1.3556   -1.5229    0.0000 C   0  0  0  0  0  0  0  0  0  0  0  0
    2.7845   -1.5229    0.0000 C   0  0  0  0  0  0  0  0  0  0  0  0
    3.5382   -1.1874    0.0000 C   0  0  0  0  0  0  0  0  0  0  0  0
    4.0902   -1.8005    0.0000 C   0  0  0  0  0  0  0  0  0  0  0  0
    4.9107   -1.7142    0.0000 C   0  0  0  0  0  0  0  0  0  0  0  0
    3.6777   -2.5150    0.0000 N   0  0  0  0  0  0  0  0  0  0  0  0
    2.8708   -2.3434    0.0000 N   0  0  0  0  0  0  0  0  0  0  0  0
    2.2577   -2.8955    0.0000 C   0  0  0  0  0  0  0  0  0  0  0  0
    2.4292   -3.7024    0.0000 C   0  0  0  0  0  0  0  0  0  0  0  0
    1.8161   -4.2545    0.0000 C   0  0  0  0  0  0  0  0  0  0  0  0
    1.0315   -3.9995    0.0000 C   0  0  0  0  0  0  0  0  0  0  0  0
    0.8600   -3.1925    0.0000 C   0  0  0  0  0  0  0  0  0  0  0  0
    1.4730   -2.6405    0.0000 C   0  0  0  0  0  0  0  0  0  0  0  0
  1  2  1  0  0  0  0
  2  3  1  0  0  0  0
  3  4  2  0  0  0  0
  4  5  1  0  0  0  0
  5  6  2  0  0  0  0
  6  7  1  0  0  0  0
  7  8  2  0  0  0  0
  8  9  1  0  0  0  0
  5  9  1  0  0  0  0
  7 10  1  0  0  0  0
 10 11  2  0  0  0  0
 11 12  1  0  0  0  0
 12 13  2  0  0  0  0
 13 14  1  0  0  0  0
 14 15  2  0  0  0  0
 10 15  1  0  0  0  0
  4 16  1  0  0  0  0
 16 17  2  0  0  0  0
  2 17  1  0  0  0  0
 17 18  1  0  0  0  0
 18 19  1  0  0  0  0
 19 20  1  0  0  0  0
 20 21  1  0  0  0  0
 16 21  1  0  0  0  0
 20 22  1  0  0  0  0
 22 23  2  0  0  0  0
 23 24  1  0  0  0  0
 24 25  1  0  0  0  0
 24 26  2  0  0  0  0
 26 27  1  0  0  0  0
 22 27  1  0  0  0  0
 27 28  1  0  0  0  0
 28 29  2  0  0  0  0
 29 30  1  0  0  0  0
 30 31  2  0  0  0  0
 31 32  1  0  0  0  0
 32 33  2  0  0  0  0
 28 33  1  0  0  0  0
M  END
> <ID>
CPD_3185

$$$$
CPD_3190
  Mrv1822 09091914012D          

 29 33  0  0  0  0            999 V2000
   -4.4788   -3.8898    0.0000 C   0  0  0  0  0  0  0  0  0  0  0  0
   -3.8657   -4.4418    0.0000 N   0  0  0  0  0  0  0  0  0  0  0  0
   -3.9519   -5.2623    0.0000 C   0  0  0  0  0  0  0  0  0  0  0  0
   -3.1982   -5.5979    0.0000 N   0  0  0  0  0  0  0  0  0  0  0  0
   -2.6462   -4.9848    0.0000 C   0  0  0  0  0  0  0  0  0  0  0  0
   -3.0587   -4.2703    0.0000 C   0  0  0  0  0  0  0  0  0  0  0  0
   -2.6462   -3.5558    0.0000 C   0  0  0  0  0  0  0  0  0  0  0  0
   -1.8212   -3.5558    0.0000 C   0  0  0  0  0  0  0  0  0  0  0  0
   -1.4087   -2.8414    0.0000 N   0  0  0  0  0  0  0  0  0  0  0  0
   -1.8212   -2.1269    0.0000 C   0  0  0  0  0  0  0  0  0  0  0  0
   -1.4087   -1.4124    0.0000 C   0  0  0  0  0  0  0  0  0  0  0  0
   -0.5837   -1.4124    0.0000 N   0  0  0  0  0  0  0  0  0  0  0  0
   -0.1712   -2.1269    0.0000 C   0  0  0  0  0  0  0  0  0  0  0  0
   -0.5837   -2.8414    0.0000 C   0  0  0  0  0  0  0  0  0  0  0  0
   -0.1712   -0.6979    0.0000 C   0  0  0  0  0  0  0  0  0  0  0  0
   -0.5837    0.0165    0.0000 O   0  0  0  0  0  0  0  0  0  0  0  0
    0.6538   -0.6979    0.0000 C   0  0  0  0  0  0  0  0  0  0  0  0
    1.1387   -0.0305    0.0000 C   0  0  0  0  0  0  0  0  0  0  0  0
    1.9233   -0.2854    0.0000 C   0  0  0  0  0  0  0  0  0  0  0  0
    2.6378    0.1271    0.0000 C   0  0  0  0  0  0  0  0  0  0  0  0
    3.3523   -0.2854    0.0000 C   0  0  0  0  0  0  0  0  0  0  0  0
    3.3523   -1.1104    0.0000 C   0  0  0  0  0  0  0  0  0  0  0  0
    2.6378   -1.5229    0.0000 C   0  0  0  0  0  0  0  0  0  0  0  0
    1.9233   -1.1104    0.0000 C   0  0  0  0  0  0  0  0  0  0  0  0
    1.1387   -1.3654    0.0000 N   0  0  0  0  0  0  0  0  0  0  0  0
    0.8838   -2.1500    0.0000 C   0  0  0  0  0  0  0  0  0  0  0  0
   -1.4087   -4.2703    0.0000 C   0  0  0  0  0  0  0  0  0  0  0  0
   -0.5837   -4.2703    0.0000 Br  0  0  0  0  0  0  0  0  0  0  0  0
   -1.8212   -4.9848    0.0000 C   0  0  0  0  0  0  0  0  0  0  0  0
  1  2  1  0  0  0  0
  2  3  1  0  0  0  0
  3  4  2  0  0  0  0
  4  5  1  0  0  0  0
  5  6  2  0  0  0  0
  2  6  1  0  0  0  0
  6  7  1  0  0  0  0
  7  8  2  0  0  0  0
  8  9  1  0  0  0  0
  9 10  1  0  0  0  0
 10 11  1  0  0  0  0
 11 12  1  0  0  0  0
 12 13  1  0  0  0  0
 13 14  1  0  0  0  0
  9 14  1  0  0  0  0
 12 15  1  0  0  0  0
 15 16  2  0  0  0  0
 15 17  1  0  0  0  0
 17 18  2  0  0  0  0
 18 19  1  0  0  0  0
 19 20  2  0  0  0  0
 20 21  1  0  0  0  0
 21 22  2  0  0  0  0
 22 23  1  0  0  0  0
 23 24  2  0  0  0  0
 19 24  1  0  0  0  0
 24 25  1  0  0  0  0
 17 25  1  0  0  0  0
 25 26  1  0  0  0  0
  8 27  1  0  0  0  0
 27 28  1  0  0  0  0
 27 29  2  0  0  0  0
  5 29  1  0  0  0  0
M  END
> <ID>
CPD_3190

$$$$
CPD_3195
  Mrv1822 09091914012D          

 28 32  0  0  0  0            999 V2000
    7.6622    4.6404    0.0000 C   0  0  0  0  0  0  0  0  0  0  0  0
    6.8776    4.8954    0.0000 N   0  0  0  0  0  0  0  0  0  0  0  0
    6.2102    4.4104    0.0000 C   0  0  0  0  0  0  0  0  0  0  0  0
    5.5427    4.8954    0.0000 C   0  0  0  0  0  0  0  0  0  0  0  0
    5.7977    5.6800    0.0000 C   0  0  0  0  0  0  0  0  0  0  0  0
    5.3852    6.3945    0.0000 C   0  0  0  0  0  0  0  0  0  0  0  0
    5.7977    7.1089    0.0000 C   0  0  0  0  0  0  0  0  0  0  0  0
    6.6227    7.1089    0.0000 C   0  0  0  0  0  0  0  0  0  0  0  0
    7.0352    6.3945    0.0000 C   0  0  0  0  0  0  0  0  0  0  0  0
    6.6227    5.6800    0.0000 C   0  0  0  0  0  0  0  0  0  0  0  0
    6.2102    3.5854    0.0000 C   0  0  0  0  0  0  0  0  0  0  0  0
    6.9246    3.1729    0.0000 O   0  0  0  0  0  0  0  0  0  0  0  0
    5.4957    3.1729    0.0000 N   0  0  0  0  0  0  0  0  0  0  0  0
    5.4957    2.3479    0.0000 C   0  0  0  0  0  0  0  0  0  0  0  0
    4.7812    1.9354    0.0000 C   0  0  0  0  0  0  0  0  0  0  0  0
    4.0668    2.3479    0.0000 N   0  0  0  0  0  0  0  0  0  0  0  0
    4.0668    3.1729    0.0000 C   0  0  0  0  0  0  0  0  0  0  0  0
    4.7812    3.5854    0.0000 C   0  0  0  0  0  0  0  0  0  0  0  0
    3.3523    1.9354    0.0000 C   0  0  0  0  0  0  0  0  0  0  0  0
    3.3523    1.1104    0.0000 C   0  0  0  0  0  0  0  0  0  0  0  0
    2.6378    0.6979    0.0000 C   0  0  0  0  0  0  0  0  0  0  0  0
    1.9233    1.1104    0.0000 C   0  0  0  0  0  0  0  0  0  0  0  0
    1.1387    0.8555    0.0000 C   0  0  0  0  0  0  0  0  0  0  0  0
    0.6538    1.5229    0.0000 C   0  0  0  0  0  0  0  0  0  0  0  0
   -0.1712    1.5229    0.0000 N   0  0  0  0  0  0  0  0  0  0  0  0
    1.1387    2.1904    0.0000 C   0  0  0  0  0  0  0  0  0  0  0  0
    1.9233    1.9354    0.0000 C   0  0  0  0  0  0  0  0  0  0  0  0
    2.6378    2.3479    0.0000 C   0  0  0  0  0  0  0  0  0  0  0  0
  1  2  1  0  0  0  0
  2  3  1  0  0  0  0
  3  4  2  0  0  0  0
  4  5  1  0  0  0  0
  5  6  2  0  0  0  0
  6  7  1  0  0  0  0
  7  8  2  0  0  0  0
  8  9  1  0  0  0  0
  9 10  2  0  0  0  0
  2 10  1  0  0  0  0
  5 10  1  0  0  0  0
  3 11  1  0  0  0  0
 11 12  2  0  0  0  0
 11 13  1  0  0  0  0
 13 14  1  0  0  0  0
 14 15  1  0  0  0  0
 15 16  1  0  0  0  0
 16 17  1  0  0  0  0
 17 18  1  0  0  0  0
 13 18  1  0  0  0  0
 16 19  1  0  0  0  0
 19 20  2  0  0  0  0
 20 21  1  0  0  0  0
 21 22  2  0  0  0  0
 22 23  1  0  0  0  0
 23 24  1  0  0  0  0
 24 25  1  0  0  0  0
 24 26  1  0  0  0  0
 26 27  1  0  0  0  0
 22 27  1  0  0  0  0
 27 28  2  0  0  0  0
 19 28  1  0  0  0  0
M  END
> <ID>
CPD_3195

$$$$
CPD_3200
  Mrv1822 09091914012D          

 35 39  0  0  0  0            999 V2000
    0.8838   -2.1500    0.0000 C   0  0  0  0  0  0  0  0  0  0  0  0
    1.1387   -1.3654    0.0000 N   0  0  0  0  0  0  0  0  0  0  0  0
    0.6538   -0.6979    0.0000 C   0  0  0  0  0  0  0  0  0  0  0  0
    1.1387   -0.0305    0.0000 C   0  0  0  0  0  0  0  0  0  0  0  0
    1.9233   -0.2854    0.0000 C   0  0  0  0  0  0  0  0  0  0  0  0
    2.6378    0.1271    0.0000 C   0  0  0  0  0  0  0  0  0  0  0  0
    3.3523   -0.2854    0.0000 C   0  0  0  0  0  0  0  0  0  0  0  0
    3.3523   -1.1104    0.0000 C   0  0  0  0  0  0  0  0  0  0  0  0
    2.6378   -1.5229    0.0000 C   0  0  0  0  0  0  0  0  0  0  0  0
    1.9233   -1.1104    0.0000 C   0  0  0  0  0  0  0  0  0  0  0  0
   -0.1712   -0.6979    0.0000 C   0  0  0  0  0  0  0  0  0  0  0  0
   -0.5837   -1.4124    0.0000 O   0  0  0  0  0  0  0  0  0  0  0  0
   -0.5837    0.0165    0.0000 N   0  0  0  0  0  0  0  0  0  0  0  0
   -1.4087    0.0165    0.0000 C   0  0  0  0  0  0  0  0  0  0  0  0
   -1.8212    0.7310    0.0000 C   0  0  0  0  0  0  0  0  0  0  0  0
   -1.4087    1.4455    0.0000 N   0  0  0  0  0  0  0  0  0  0  0  0
   -0.5837    1.4455    0.0000 C   0  0  0  0  0  0  0  0  0  0  0  0
   -0.1712    0.7310    0.0000 C   0  0  0  0  0  0  0  0  0  0  0  0
   -1.8212    2.1599    0.0000 C   0  0  0  0  0  0  0  0  0  0  0  0
   -2.6462    2.1599    0.0000 C   0  0  0  0  0  0  0  0  0  0  0  0
   -3.0587    2.8744    0.0000 C   0  0  0  0  0  0  0  0  0  0  0  0
   -3.8837    2.8744    0.0000 N   0  0  0  0  0  0  0  0  0  0  0  0
   -4.2962    3.5889    0.0000 S   0  0  0  0  0  0  0  0  0  0  0  0
   -3.5817    4.0014    0.0000 O   0  0  0  0  0  0  0  0  0  0  0  0
   -5.0107    3.1764    0.0000 O   0  0  0  0  0  0  0  0  0  0  0  0
   -4.7087    4.3034    0.0000 C   0  0  0  0  0  0  0  0  0  0  0  0
   -5.5337    4.3034    0.0000 C   0  0  0  0  0  0  0  0  0  0  0  0
   -5.9462    5.0178    0.0000 C   0  0  0  0  0  0  0  0  0  0  0  0
   -5.5337    5.7323    0.0000 C   0  0  0  0  0  0  0  0  0  0  0  0
   -4.7087    5.7323    0.0000 C   0  0  0  0  0  0  0  0  0  0  0  0
   -4.2962    5.0178    0.0000 C   0  0  0  0  0  0  0  0  0  0  0  0
   -3.4712    5.0178    0.0000 N   0  0  0  0  0  0  0  0  0  0  0  0
   -2.6462    3.5889    0.0000 C   0  0  0  0  0  0  0  0  0  0  0  0
   -1.8212    3.5889    0.0000 C   0  0  0  0  0  0  0  0  0  0  0  0
   -1.4087    2.8744    0.0000 C   0  0  0  0  0  0  0  0  0  0  0  0
  1  2  1  0  0  0  0
  2  3  1  0  0  0  0
  3  4  2  0  0  0  0
  4  5  1  0  0  0  0
  5  6  2  0  0  0  0
  6  7  1  0  0  0  0
  7  8  2  0  0  0  0
  8  9  1  0  0  0  0
  9 10  2  0  0  0  0
  2 10  1  0  0  0  0
  5 10  1  0  0  0  0
  3 11  1  0  0  0  0
 11 12  2  0  0  0  0
 11 13  1  0  0  0  0
 13 14  1  0  0  0  0
 14 15  1  0  0  0  0
 15 16  1  0  0  0  0
 16 17  1  0  0  0  0
 17 18  1  0  0  0  0
 13 18  1  0  0  0  0
 16 19  1  0  0  0  0
 19 20  2  0  0  0  0
 20 21  1  0  0  0  0
 21 22  1  0  0  0  0
 22 23  1  0  0  0  0
 23 24  2  0  0  0  0
 23 25  2  0  0  0  0
 23 26  1  0  0  0  0
 26 27  2  0  0  0  0
 27 28  1  0  0  0  0
 28 29  2  0  0  0  0
 29 30  1  0  0  0  0
 30 31  2  0  0  0  0
 26 31  1  0  0  0  0
 31 32  1  0  0  0  0
 21 33  2  0  0  0  0
 33 34  1  0  0  0  0
 34 35  2  0  0  0  0
 19 35  1  0  0  0  0
M  END
> <ID>
CPD_3200

$$$$
CPD_3205
  Mrv1822 09091914012D          

 34 37  0  0  0  0            999 V2000
    7.9806    0.6791    0.0000 C   0  0  0  0  0  0  0  0  0  0  0  0
    7.4957    1.3466    0.0000 N   0  0  0  0  0  0  0  0  0  0  0  0
    6.6752    1.2603    0.0000 C   0  0  0  0  0  0  0  0  0  0  0  0
    6.3397    0.5066    0.0000 C   0  0  0  0  0  0  0  0  0  0  0  0
    5.5192    0.4204    0.0000 C   0  0  0  0  0  0  0  0  0  0  0  0
    5.1067   -0.2941    0.0000 N   0  0  0  0  0  0  0  0  0  0  0  0
    4.2997   -0.1225    0.0000 O   0  0  0  0  0  0  0  0  0  0  0  0
    4.2135    0.6979    0.0000 C   0  0  0  0  0  0  0  0  0  0  0  0
    3.4990    1.1104    0.0000 C   0  0  0  0  0  0  0  0  0  0  0  0
    2.7845    0.6979    0.0000 O   0  0  0  0  0  0  0  0  0  0  0  0
    2.0701    1.1104    0.0000 C   0  0  0  0  0  0  0  0  0  0  0  0
    1.3556    0.6979    0.0000 C   0  0  0  0  0  0  0  0  0  0  0  0
    0.6411    1.1104    0.0000 C   0  0  0  0  0  0  0  0  0  0  0  0
    0.6411    1.9354    0.0000 C   0  0  0  0  0  0  0  0  0  0  0  0
   -0.1435    2.1904    0.0000 C   0  0  0  0  0  0  0  0  0  0  0  0
   -0.6284    1.5229    0.0000 C   0  0  0  0  0  0  0  0  0  0  0  0
   -0.1435    0.8555    0.0000 C   0  0  0  0  0  0  0  0  0  0  0  0
    1.3556    2.3479    0.0000 C   0  0  0  0  0  0  0  0  0  0  0  0
    2.0701    1.9354    0.0000 C   0  0  0  0  0  0  0  0  0  0  0  0
    4.9671    1.0335    0.0000 N   0  0  0  0  0  0  0  0  0  0  0  0
    7.8313    2.1002    0.0000 C   0  0  0  0  0  0  0  0  0  0  0  0
    7.3463    2.7677    0.0000 C   0  0  0  0  0  0  0  0  0  0  0  0
    6.5258    2.6814    0.0000 F   0  0  0  0  0  0  0  0  0  0  0  0
    7.6819    3.5213    0.0000 C   0  0  0  0  0  0  0  0  0  0  0  0
    7.1970    4.1888    0.0000 F   0  0  0  0  0  0  0  0  0  0  0  0
    8.5024    3.6076    0.0000 C   0  0  0  0  0  0  0  0  0  0  0  0
    8.8379    4.3613    0.0000 F   0  0  0  0  0  0  0  0  0  0  0  0
    8.9873    2.9401    0.0000 C   0  0  0  0  0  0  0  0  0  0  0  0
    9.8078    3.0264    0.0000 N   0  0  0  0  0  0  0  0  0  0  0  0
   10.2927    2.3589    0.0000 C   0  0  0  0  0  0  0  0  0  0  0  0
   11.1132    2.4452    0.0000 N   0  0  0  0  0  0  0  0  0  0  0  0
    9.9571    1.6053    0.0000 S   0  0  0  0  0  0  0  0  0  0  0  0
    8.6517    2.1865    0.0000 C   0  0  0  0  0  0  0  0  0  0  0  0
    9.1367    1.5190    0.0000 F   0  0  0  0  0  0  0  0  0  0  0  0
  1  2  1  0  0  0  0
  2  3  1  0  0  0  0
  3  4  1  0  0  0  0
  4  5  1  0  0  0  0
  5  6  2  0  0  0  0
  6  7  1  0  0  0  0
  7  8  1  0  0  0  0
  8  9  1  0  0  0  0
  9 10  1  0  0  0  0
 10 11  1  0  0  0  0
 11 12  2  0  0  0  0
 12 13  1  0  0  0  0
 13 14  2  0  0  0  0
 14 15  1  0  0  0  0
 15 16  1  0  0  0  0
 16 17  1  0  0  0  0
 13 17  1  0  0  0  0
 14 18  1  0  0  0  0
 18 19  2  0  0  0  0
 11 19  1  0  0  0  0
  8 20  2  0  0  0  0
  5 20  1  0  0  0  0
  2 21  1  0  0  0  0
 21 22  2  0  0  0  0
 22 23  1  0  0  0  0
 22 24  1  0  0  0  0
 24 25  1  0  0  0  0
 24 26  2  0  0  0  0
 26 27  1  0  0  0  0
 26 28  1  0  0  0  0
 28 29  1  0  0  0  0
 29 30  1  0  0  0  0
 30 31  1  0  0  0  0
 30 32  2  0  0  0  0
 28 33  2  0  0  0  0
 21 33  1  0  0  0  0
 33 34  1  0  0  0  0
M  END
> <ID>
CPD_3205

$$$$
CPD_3210
  Mrv1822 09091914012D          

 30 33  0  0  1  0            999 V2000
   10.4052   -2.6581    0.0000 C   0  0  0  0  0  0  0  0  0  0  0  0
    9.5848   -2.7443    0.0000 C   0  0  1  0  0  0  0  0  0  0  0  0
    9.2492   -3.4980    0.0000 N   0  0  0  0  0  0  0  0  0  0  0  0
    9.0998   -2.0769    0.0000 C   0  0  0  0  0  0  0  0  0  0  0  0
    8.2793   -2.1631    0.0000 C   0  0  0  0  0  0  0  0  0  0  0  0
    7.9438   -2.9168    0.0000 F   0  0  0  0  0  0  0  0  0  0  0  0
    7.7944   -1.4957    0.0000 C   0  0  0  0  0  0  0  0  0  0  0  0
    8.1300   -0.7420    0.0000 C   0  0  0  0  0  0  0  0  0  0  0  0
    8.9505   -0.6558    0.0000 C   0  0  0  0  0  0  0  0  0  0  0  0
    9.4354   -1.3232    0.0000 C   0  0  0  0  0  0  0  0  0  0  0  0
    7.6451   -0.0746    0.0000 N   0  0  0  0  0  0  0  0  0  0  0  0
    7.9806    0.6791    0.0000 C   0  0  0  0  0  0  0  0  0  0  0  0
    6.8246   -0.1608    0.0000 C   0  0  0  0  0  0  0  0  0  0  0  0
    6.3397    0.5066    0.0000 C   0  0  0  0  0  0  0  0  0  0  0  0
    5.5192    0.4204    0.0000 C   0  0  0  0  0  0  0  0  0  0  0  0
    5.1067   -0.2941    0.0000 N   0  0  0  0  0  0  0  0  0  0  0  0
    4.2997   -0.1225    0.0000 O   0  0  0  0  0  0  0  0  0  0  0  0
    4.2135    0.6979    0.0000 C   0  0  0  0  0  0  0  0  0  0  0  0
    3.4990    1.1104    0.0000 C   0  0  0  0  0  0  0  0  0  0  0  0
    2.7845    0.6979    0.0000 O   0  0  0  0  0  0  0  0  0  0  0  0
    2.0701    1.1104    0.0000 C   0  0  0  0  0  0  0  0  0  0  0  0
    1.3556    0.6979    0.0000 C   0  0  0  0  0  0  0  0  0  0  0  0
    0.6411    1.1104    0.0000 C   0  0  0  0  0  0  0  0  0  0  0  0
    0.6411    1.9354    0.0000 C   0  0  0  0  0  0  0  0  0  0  0  0
   -0.1435    2.1904    0.0000 C   0  0  0  0  0  0  0  0  0  0  0  0
   -0.6284    1.5229    0.0000 C   0  0  0  0  0  0  0  0  0  0  0  0
   -0.1435    0.8555    0.0000 C   0  0  0  0  0  0  0  0  0  0  0  0
    1.3556    2.3479    0.0000 C   0  0  0  0  0  0  0  0  0  0  0  0
    2.0701    1.9354    0.0000 C   0  0  0  0  0  0  0  0  0  0  0  0
    4.9671    1.0335    0.0000 N   0  0  0  0  0  0  0  0  0  0  0  0
  2  1  1  0  0  0  0
  2  3  1  1  0  0  0
  2  4  1  0  0  0  0
  4  5  2  0  0  0  0
  5  6  1  0  0  0  0
  5  7  1  0  0  0  0
  7  8  2  0  0  0  0
  8  9  1  0  0  0  0
  9 10  2  0  0  0  0
  4 10  1  0  0  0  0
  8 11  1  0  0  0  0
 11 12  1  0  0  0  0
 11 13  1  0  0  0  0
 13 14  1  0  0  0  0
 14 15  1  0  0  0  0
 15 16  2  0  0  0  0
 16 17  1  0  0  0  0
 17 18  1  0  0  0  0
 18 19  1  0  0  0  0
 19 20  1  0  0  0  0
 20 21  1  0  0  0  0
 21 22  2  0  0  0  0
 22 23  1  0  0  0  0
 23 24  2  0  0  0  0
 24 25  1  0  0  0  0
 25 26  1  0  0  0  0
 26 27  1  0  0  0  0
 23 27  1  0  0  0  0
 24 28  1  0  0  0  0
 28 29  2  0  0  0  0
 21 29  1  0  0  0  0
 18 30  2  0  0  0  0
 15 30  1  0  0  0  0
M  END
> <ID>
CPD_3210

$$$$
CPD_3215
  Mrv1822 09091914012D          

 32 35  0  0  0  0            999 V2000
    8.5781   -5.0053    0.0000 C   0  0  0  0  0  0  0  0  0  0  0  0
    8.0932   -4.3379    0.0000 O   0  0  0  0  0  0  0  0  0  0  0  0
    8.4287   -3.5842    0.0000 C   0  0  0  0  0  0  0  0  0  0  0  0
    9.2492   -3.4980    0.0000 O   0  0  0  0  0  0  0  0  0  0  0  0
    7.9438   -2.9168    0.0000 C   0  0  0  0  0  0  0  0  0  0  0  0
    8.2793   -2.1631    0.0000 C   0  0  0  0  0  0  0  0  0  0  0  0
    7.7944   -1.4957    0.0000 C   0  0  0  0  0  0  0  0  0  0  0  0
    8.1300   -0.7420    0.0000 C   0  0  0  0  0  0  0  0  0  0  0  0
    8.9505   -0.6558    0.0000 C   0  0  0  0  0  0  0  0  0  0  0  0
    9.4354   -1.3232    0.0000 C   0  0  0  0  0  0  0  0  0  0  0  0
    9.0998   -2.0769    0.0000 C   0  0  0  0  0  0  0  0  0  0  0  0
    9.5848   -2.7443    0.0000 F   0  0  0  0  0  0  0  0  0  0  0  0
    7.6451   -0.0746    0.0000 N   0  0  0  0  0  0  0  0  0  0  0  0
    7.9806    0.6791    0.0000 C   0  0  0  0  0  0  0  0  0  0  0  0
    6.8246   -0.1608    0.0000 C   0  0  0  0  0  0  0  0  0  0  0  0
    6.3397    0.5066    0.0000 C   0  0  0  0  0  0  0  0  0  0  0  0
    5.5192    0.4204    0.0000 C   0  0  0  0  0  0  0  0  0  0  0  0
    5.1067   -0.2941    0.0000 N   0  0  0  0  0  0  0  0  0  0  0  0
    4.2997   -0.1225    0.0000 O   0  0  0  0  0  0  0  0  0  0  0  0
    4.2135    0.6979    0.0000 C   0  0  0  0  0  0  0  0  0  0  0  0
    3.4990    1.1104    0.0000 C   0  0  0  0  0  0  0  0  0  0  0  0
    2.7845    0.6979    0.0000 O   0  0  0  0  0  0  0  0  0  0  0  0
    2.0701    1.1104    0.0000 C   0  0  0  0  0  0  0  0  0  0  0  0
    1.3556    0.6979    0.0000 C   0  0  0  0  0  0  0  0  0  0  0  0
    0.6411    1.1104    0.0000 C   0  0  0  0  0  0  0  0  0  0  0  0
    0.6411    1.9354    0.0000 C   0  0  0  0  0  0  0  0  0  0  0  0
   -0.1435    2.1904    0.0000 C   0  0  0  0  0  0  0  0  0  0  0  0
   -0.6284    1.5229    0.0000 C   0  0  0  0  0  0  0  0  0  0  0  0
   -0.1435    0.8555    0.0000 C   0  0  0  0  0  0  0  0  0  0  0  0
    1.3556    2.3479    0.0000 C   0  0  0  0  0  0  0  0  0  0  0  0
    2.0701    1.9354    0.0000 C   0  0  0  0  0  0  0  0  0  0  0  0
    4.9671    1.0335    0.0000 N   0  0  0  0  0  0  0  0  0  0  0  0
  1  2  1  0  0  0  0
  2  3  1  0  0  0  0
  3  4  2  0  0  0  0
  3  5  1  0  0  0  0
  5  6  1  0  0  0  0
  6  7  2  0  0  0  0
  7  8  1  0  0  0  0
  8  9  2  0  0  0  0
  9 10  1  0  0  0  0
 10 11  2  0  0  0  0
  6 11  1  0  0  0  0
 11 12  1  0  0  0  0
  8 13  1  0  0  0  0
 13 14  1  0  0  0  0
 13 15  1  0  0  0  0
 15 16  1  0  0  0  0
 16 17  1  0  0  0  0
 17 18  2  0  0  0  0
 18 19  1  0  0  0  0
 19 20  1  0  0  0  0
 20 21  1  0  0  0  0
 21 22  1  0  0  0  0
 22 23  1  0  0  0  0
 23 24  2  0  0  0  0
 24 25  1  0  0  0  0
 25 26  2  0  0  0  0
 26 27  1  0  0  0  0
 27 28  1  0  0  0  0
 28 29  1  0  0  0  0
 25 29  1  0  0  0  0
 26 30  1  0  0  0  0
 30 31  2  0  0  0  0
 23 31  1  0  0  0  0
 20 32  2  0  0  0  0
 17 32  1  0  0  0  0
M  END
> <ID>
CPD_3215

$$$$
CPD_3220
  Mrv1822 09091914012D          

 36 40  0  0  0  0            999 V2000
   -2.8579   -1.6500    0.0000 F   0  0  0  0  0  0  0  0  0  0  0  0
   -2.8579   -2.4750    0.0000 C   0  0  0  0  0  0  0  0  0  0  0  0
   -2.1434   -2.8875    0.0000 C   0  0  0  0  0  0  0  0  0  0  0  0
   -2.1434   -3.7125    0.0000 C   0  0  0  0  0  0  0  0  0  0  0  0
   -2.8579   -4.1250    0.0000 C   0  0  0  0  0  0  0  0  0  0  0  0
   -2.8579   -4.9500    0.0000 C   0  0  0  0  0  0  0  0  0  0  0  0
   -3.5724   -5.3625    0.0000 S   0  0  0  0  0  0  0  0  0  0  0  0
   -3.5724   -6.1875    0.0000 C   0  0  0  0  0  0  0  0  0  0  0  0
   -2.9049   -6.6724    0.0000 N   0  0  0  0  0  0  0  0  0  0  0  0
   -3.1599   -7.4570    0.0000 S   0  0  0  0  0  0  0  0  0  0  0  0
   -3.9849   -7.4570    0.0000 C   0  0  0  0  0  0  0  0  0  0  0  0
   -4.2398   -6.6724    0.0000 N   0  0  0  0  0  0  0  0  0  0  0  0
   -4.4698   -8.1245    0.0000 N   0  0  0  0  0  0  0  0  0  0  0  0
   -4.1342   -8.8782    0.0000 C   0  0  0  0  0  0  0  0  0  0  0  0
   -4.6191   -9.5456    0.0000 C   0  0  0  0  0  0  0  0  0  0  0  0
   -5.4396   -9.4594    0.0000 C   0  0  0  0  0  0  0  0  0  0  0  0
   -5.7752   -8.7057    0.0000 C   0  0  0  0  0  0  0  0  0  0  0  0
   -6.5957   -8.6195    0.0000 C   0  0  0  0  0  0  0  0  0  0  0  0
   -7.0806   -9.2869    0.0000 O   0  0  0  0  0  0  0  0  0  0  0  0
   -7.9011   -9.2007    0.0000 C   0  0  0  0  0  0  0  0  0  0  0  0
   -8.3860   -9.8681    0.0000 C   0  0  0  0  0  0  0  0  0  0  0  0
   -9.2065   -9.7819    0.0000 C   0  0  0  0  0  0  0  0  0  0  0  0
   -9.5420   -9.0282    0.0000 C   0  0  0  0  0  0  0  0  0  0  0  0
   -9.0571   -8.3607    0.0000 C   0  0  0  0  0  0  0  0  0  0  0  0
   -8.2366   -8.4470    0.0000 C   0  0  0  0  0  0  0  0  0  0  0  0
  -10.3625   -8.9419    0.0000 C   0  0  0  0  0  0  0  0  0  0  0  0
  -10.6981   -8.1883    0.0000 O   0  0  0  0  0  0  0  0  0  0  0  0
  -10.8474   -9.6094    0.0000 N   0  0  0  0  0  0  0  0  0  0  0  0
  -10.5119  -10.3631    0.0000 C   0  0  0  0  0  0  0  0  0  0  0  0
  -10.9968  -11.0305    0.0000 C   0  0  0  0  0  0  0  0  0  0  0  0
  -11.8173  -10.9443    0.0000 C   0  0  0  0  0  0  0  0  0  0  0  0
  -12.1528  -10.1906    0.0000 C   0  0  0  0  0  0  0  0  0  0  0  0
  -11.6679   -9.5231    0.0000 C   0  0  0  0  0  0  0  0  0  0  0  0
   -5.2903   -8.0382    0.0000 C   0  0  0  0  0  0  0  0  0  0  0  0
   -3.5724   -3.7125    0.0000 C   0  0  0  0  0  0  0  0  0  0  0  0
   -3.5724   -2.8875    0.0000 C   0  0  0  0  0  0  0  0  0  0  0  0
  1  2  1  0  0  0  0
  2  3  2  0  0  0  0
  3  4  1  0  0  0  0
  4  5  2  0  0  0  0
  5  6  1  0  0  0  0
  6  7  1  0  0  0  0
  7  8  1  0  0  0  0
  8  9  2  0  0  0  0
  9 10  1  0  0  0  0
 10 11  1  0  0  0  0
 11 12  2  0  0  0  0
  8 12  1  0  0  0  0
 11 13  1  0  0  0  0
 13 14  1  0  0  0  0
 14 15  1  0  0  0  0
 15 16  1  0  0  0  0
 16 17  1  0  0  0  0
 17 18  1  0  0  0  0
 18 19  1  0  0  0  0
 19 20  1  0  0  0  0
 20 21  2  0  0  0  0
 21 22  1  0  0  0  0
 22 23  2  0  0  0  0
 23 24  1  0  0  0  0
 24 25  2  0  0  0  0
 20 25  1  0  0  0  0
 23 26  1  0  0  0  0
 26 27  2  0  0  0  0
 26 28  1  0  0  0  0
 28 29  1  0  0  0  0
 29 30  1  0  0  0  0
 30 31  1  0  0  0  0
 31 32  1  0  0  0  0
 32 33  1  0  0  0  0
 28 33  1  0  0  0  0
 17 34  1  0  0  0  0
 13 34  1  0  0  0  0
  5 35  1  0  0  0  0
 35 36  2  0  0  0  0
  2 36  1  0  0  0  0
M  END
> <ID>
CPD_3220

$$$$
CPD_3225
  Mrv1822 09091914012D          

 30 33  0  0  0  0            999 V2000
   -1.4604    1.7103    0.0000 H   0  0  0  0  0  0  0  0  0  0  0  0
   -1.2054    0.9256    0.0000 O   0  0  0  0  0  0  0  0  0  0  0  0
   -0.3984    0.7541    0.0000 C   0  0  0  0  0  0  0  0  0  0  0  0
   -0.1435   -0.0305    0.0000 C   0  0  0  0  0  0  0  0  0  0  0  0
   -0.6284   -0.6979    0.0000 C   0  0  0  0  0  0  0  0  0  0  0  0
   -0.1435   -1.3654    0.0000 N   0  0  0  0  0  0  0  0  0  0  0  0
    0.6411   -1.1104    0.0000 C   0  0  0  0  0  0  0  0  0  0  0  0
    0.6411   -0.2854    0.0000 C   0  0  0  0  0  0  0  0  0  0  0  0
    1.3556    0.1271    0.0000 C   0  0  0  0  0  0  0  0  0  0  0  0
    2.0701   -0.2854    0.0000 C   0  0  0  0  0  0  0  0  0  0  0  0
    2.0701   -1.1104    0.0000 C   0  0  0  0  0  0  0  0  0  0  0  0
    1.3556   -1.5229    0.0000 C   0  0  0  0  0  0  0  0  0  0  0  0
   -0.3984   -2.1500    0.0000 C   0  0  0  0  0  0  0  0  0  0  0  0
    0.1536   -2.7631    0.0000 C   0  0  0  0  0  0  0  0  0  0  0  0
    0.9606   -2.5916    0.0000 Cl  0  0  0  0  0  0  0  0  0  0  0  0
   -0.1014   -3.5477    0.0000 C   0  0  0  0  0  0  0  0  0  0  0  0
   -0.9083   -3.7192    0.0000 C   0  0  0  0  0  0  0  0  0  0  0  0
   -1.4604   -3.1062    0.0000 C   0  0  0  0  0  0  0  0  0  0  0  0
   -1.2054   -2.3215    0.0000 N   0  0  0  0  0  0  0  0  0  0  0  0
   -1.1633   -4.5039    0.0000 C   0  0  0  0  0  0  0  0  0  0  0  0
   -1.4182   -5.2885    0.0000 F   0  0  0  0  0  0  0  0  0  0  0  0
   -0.3786   -4.7588    0.0000 F   0  0  0  0  0  0  0  0  0  0  0  0
   -1.9479   -4.2489    0.0000 F   0  0  0  0  0  0  0  0  0  0  0  0
    0.1536    1.3672    0.0000 C   0  0  0  0  0  0  0  0  0  0  0  0
   -0.0179    2.1742    0.0000 C   0  0  0  0  0  0  0  0  0  0  0  0
   -0.7716    2.5097    0.0000 C   0  0  0  0  0  0  0  0  0  0  0  0
    0.6965    2.5867    0.0000 O   0  0  0  0  0  0  0  0  0  0  0  0
    1.3096    2.0347    0.0000 C   0  0  0  0  0  0  0  0  0  0  0  0
    0.9741    1.2810    0.0000 C   0  0  0  0  0  0  0  0  0  0  0  0
    1.3866    0.5665    0.0000 O   0  0  0  0  0  0  0  0  0  0  0  0
  1  2  1  0  0  0  0
  2  3  1  0  0  0  0
  3  4  1  0  0  0  0
  4  5  2  0  0  0  0
  5  6  1  0  0  0  0
  6  7  1  0  0  0  0
  7  8  2  0  0  0  0
  4  8  1  0  0  0  0
  8  9  1  0  0  0  0
  9 10  2  0  0  0  0
 10 11  1  0  0  0  0
 11 12  2  0  0  0  0
  7 12  1  0  0  0  0
  6 13  1  0  0  0  0
 13 14  2  0  0  0  0
 14 15  1  0  0  0  0
 14 16  1  0  0  0  0
 16 17  2  0  0  0  0
 17 18  1  0  0  0  0
 18 19  2  0  0  0  0
 13 19  1  0  0  0  0
 17 20  1  0  0  0  0
 20 21  1  0  0  0  0
 20 22  1  0  0  0  0
 20 23  1  0  0  0  0
  3 24  1  0  0  0  0
 24 25  2  0  0  0  0
 25 26  1  0  0  0  0
 25 27  1  0  0  0  0
 27 28  1  0  0  0  0
 28 29  1  0  0  0  0
 24 29  1  0  0  0  0
 29 30  2  0  0  0  0
M  END
> <ID>
CPD_3225

$$$$
CPD_3230
  Mrv1822 09091914012D          

 22 23  0  0  0  0            999 V2000
    0.8212   -0.4741    0.0000 H   0  0  0  0  0  0  0  0  0  0  0  0
    0.1067   -0.0616    0.0000 O   0  0  0  0  0  0  0  0  0  0  0  0
   -0.6078   -0.4741    0.0000 C   0  0  0  0  0  0  0  0  0  0  0  0
   -0.6078   -1.2991    0.0000 C   0  0  0  0  0  0  0  0  0  0  0  0
    0.0597   -1.7840    0.0000 C   0  0  0  0  0  0  0  0  0  0  0  0
    0.8443   -1.5291    0.0000 C   0  0  0  0  0  0  0  0  0  0  0  0
   -0.1953   -2.5687    0.0000 O   0  0  0  0  0  0  0  0  0  0  0  0
   -1.0203   -2.5687    0.0000 C   0  0  0  0  0  0  0  0  0  0  0  0
   -1.2752   -1.7840    0.0000 C   0  0  0  0  0  0  0  0  0  0  0  0
   -2.0598   -1.5291    0.0000 O   0  0  0  0  0  0  0  0  0  0  0  0
   -1.3222   -0.0616    0.0000 C   0  0  0  0  0  0  0  0  0  0  0  0
   -2.0367   -0.4741    0.0000 C   0  0  0  0  0  0  0  0  0  0  0  0
   -2.7512   -0.0616    0.0000 C   0  0  0  0  0  0  0  0  0  0  0  0
   -3.4656   -0.4741    0.0000 Cl  0  0  0  0  0  0  0  0  0  0  0  0
   -2.7512    0.7634    0.0000 C   0  0  0  0  0  0  0  0  0  0  0  0
   -2.0367    1.1759    0.0000 C   0  0  0  0  0  0  0  0  0  0  0  0
   -2.0367    2.0009    0.0000 O   0  0  0  0  0  0  0  0  0  0  0  0
   -2.7512    2.4134    0.0000 C   0  0  0  0  0  0  0  0  0  0  0  0
   -3.4656    2.8259    0.0000 F   0  0  0  0  0  0  0  0  0  0  0  0
   -2.3387    3.1279    0.0000 F   0  0  0  0  0  0  0  0  0  0  0  0
   -3.1637    1.6989    0.0000 F   0  0  0  0  0  0  0  0  0  0  0  0
   -1.3222    0.7634    0.0000 C   0  0  0  0  0  0  0  0  0  0  0  0
  1  2  1  0  0  0  0
  2  3  1  0  0  0  0
  3  4  1  0  0  0  0
  4  5  2  0  0  0  0
  5  6  1  0  0  0  0
  5  7  1  0  0  0  0
  7  8  1  0  0  0  0
  8  9  1  0  0  0  0
  4  9  1  0  0  0  0
  9 10  2  0  0  0  0
  3 11  1  0  0  0  0
 11 12  2  0  0  0  0
 12 13  1  0  0  0  0
 13 14  1  0  0  0  0
 13 15  2  0  0  0  0
 15 16  1  0  0  0  0
 16 17  1  0  0  0  0
 17 18  1  0  0  0  0
 18 19  1  0  0  0  0
 18 20  1  0  0  0  0
 18 21  1  0  0  0  0
 16 22  2  0  0  0  0
 11 22  1  0  0  0  0
M  END
> <ID>
CPD_3230

$$$$
CPD_3235
  Mrv1822 09091914012D          

 27 29  0  0  0  0            999 V2000
    2.1434   -0.4125    0.0000 H   0  0  0  0  0  0  0  0  0  0  0  0
    1.4289   -0.0000    0.0000 O   0  0  0  0  0  0  0  0  0  0  0  0
    0.7145   -0.4125    0.0000 C   0  0  0  0  0  0  0  0  0  0  0  0
    0.7145   -1.2375    0.0000 C   0  0  0  0  0  0  0  0  0  0  0  0
    1.3819   -1.7224    0.0000 C   0  0  0  0  0  0  0  0  0  0  0  0
    2.1665   -1.4675    0.0000 C   0  0  0  0  0  0  0  0  0  0  0  0
    1.1270   -2.5070    0.0000 N   0  0  0  0  0  0  0  0  0  0  0  0
    0.3020   -2.5070    0.0000 C   0  0  0  0  0  0  0  0  0  0  0  0
   -0.1830   -3.1745    0.0000 C   0  0  0  0  0  0  0  0  0  0  0  0
    0.0470   -1.7224    0.0000 C   0  0  0  0  0  0  0  0  0  0  0  0
    1.6119   -3.1745    0.0000 C   0  0  0  0  0  0  0  0  0  0  0  0
    2.4324   -3.0882    0.0000 C   0  0  0  0  0  0  0  0  0  0  0  0
    2.9173   -3.7557    0.0000 C   0  0  0  0  0  0  0  0  0  0  0  0
    2.5817   -4.5094    0.0000 C   0  0  0  0  0  0  0  0  0  0  0  0
    1.7613   -4.5956    0.0000 C   0  0  0  0  0  0  0  0  0  0  0  0
    1.2763   -3.9282    0.0000 C   0  0  0  0  0  0  0  0  0  0  0  0
    3.7378   -3.6695    0.0000 C   0  0  0  0  0  0  0  0  0  0  0  0
    4.0733   -2.9158    0.0000 O   0  0  0  0  0  0  0  0  0  0  0  0
    4.2227   -4.3369    0.0000 O   0  0  0  0  0  0  0  0  0  0  0  0
    5.0432   -4.2507    0.0000 C   0  0  0  0  0  0  0  0  0  0  0  0
    0.0000   -0.0000    0.0000 C   0  0  0  0  0  0  0  0  0  0  0  0
   -0.0862    0.8205    0.0000 C   0  0  0  0  0  0  0  0  0  0  0  0
    0.5269    1.3725    0.0000 C   0  0  0  0  0  0  0  0  0  0  0  0
   -0.8932    0.9920    0.0000 O   0  0  0  0  0  0  0  0  0  0  0  0
   -1.3057    0.2775    0.0000 C   0  0  0  0  0  0  0  0  0  0  0  0
   -0.7537   -0.3356    0.0000 C   0  0  0  0  0  0  0  0  0  0  0  0
   -0.9252   -1.1425    0.0000 O   0  0  0  0  0  0  0  0  0  0  0  0
  1  2  1  0  0  0  0
  2  3  1  0  0  0  0
  3  4  1  0  0  0  0
  4  5  2  0  0  0  0
  5  6  1  0  0  0  0
  5  7  1  0  0  0  0
  7  8  1  0  0  0  0
  8  9  1  0  0  0  0
  8 10  2  0  0  0  0
  4 10  1  0  0  0  0
  7 11  1  0  0  0  0
 11 12  2  0  0  0  0
 12 13  1  0  0  0  0
 13 14  2  0  0  0  0
 14 15  1  0  0  0  0
 15 16  2  0  0  0  0
 11 16  1  0  0  0  0
 13 17  1  0  0  0  0
 17 18  2  0  0  0  0
 17 19  1  0  0  0  0
 19 20  1  0  0  0  0
  3 21  1  0  0  0  0
 21 22  2  0  0  0  0
 22 23  1  0  0  0  0
 22 24  1  0  0  0  0
 24 25  1  0  0  0  0
 25 26  1  0  0  0  0
 21 26  1  0  0  0  0
 26 27  2  0  0  0  0
M  END
> <ID>
CPD_3235

$$$$
CPD_3240
  Mrv1822 09091914012D          

 33 36  0  0  0  0            999 V2000
    6.6100    6.1978    0.0000 C   0  0  0  0  0  0  0  0  0  0  0  0
    6.1975    5.4834    0.0000 O   0  0  0  0  0  0  0  0  0  0  0  0
    6.6100    4.7689    0.0000 C   0  0  0  0  0  0  0  0  0  0  0  0
    7.4350    4.7689    0.0000 O   0  0  0  0  0  0  0  0  0  0  0  0
    6.1975    4.0544    0.0000 C   0  0  0  0  0  0  0  0  0  0  0  0
    6.6100    3.3400    0.0000 C   0  0  0  0  0  0  0  0  0  0  0  0
    6.1975    2.6255    0.0000 C   0  0  0  0  0  0  0  0  0  0  0  0
    5.3725    2.6255    0.0000 C   0  0  0  0  0  0  0  0  0  0  0  0
    4.8204    2.0124    0.0000 N   0  0  0  0  0  0  0  0  0  0  0  0
    4.9920    1.2054    0.0000 C   0  0  0  0  0  0  0  0  0  0  0  0
    5.7766    0.9505    0.0000 C   0  0  0  0  0  0  0  0  0  0  0  0
    5.9481    0.1435    0.0000 N   0  0  0  0  0  0  0  0  0  0  0  0
    6.7327   -0.1114    0.0000 C   0  0  0  0  0  0  0  0  0  0  0  0
    7.3458    0.4406    0.0000 O   0  0  0  0  0  0  0  0  0  0  0  0
    6.9043   -0.9184    0.0000 O   0  0  0  0  0  0  0  0  0  0  0  0
    7.6889   -1.1733    0.0000 C   0  0  0  0  0  0  0  0  0  0  0  0
    8.4735   -1.4283    0.0000 C   0  0  0  0  0  0  0  0  0  0  0  0
    7.4339   -1.9580    0.0000 C   0  0  0  0  0  0  0  0  0  0  0  0
    7.9438   -0.3887    0.0000 C   0  0  0  0  0  0  0  0  0  0  0  0
    4.0668    2.3479    0.0000 C   0  0  0  0  0  0  0  0  0  0  0  0
    4.1530    3.1684    0.0000 N   0  0  0  0  0  0  0  0  0  0  0  0
    4.9600    3.3400    0.0000 C   0  0  0  0  0  0  0  0  0  0  0  0
    5.3725    4.0544    0.0000 C   0  0  0  0  0  0  0  0  0  0  0  0
    3.3523    1.9354    0.0000 C   0  0  0  0  0  0  0  0  0  0  0  0
    3.3523    1.1104    0.0000 C   0  0  0  0  0  0  0  0  0  0  0  0
    2.6378    0.6979    0.0000 C   0  0  0  0  0  0  0  0  0  0  0  0
    1.9233    1.1104    0.0000 N   0  0  0  0  0  0  0  0  0  0  0  0
    1.1387    0.8555    0.0000 C   0  0  0  0  0  0  0  0  0  0  0  0
    0.8838    0.0709    0.0000 Cl  0  0  0  0  0  0  0  0  0  0  0  0
    0.6538    1.5229    0.0000 C   0  0  0  0  0  0  0  0  0  0  0  0
    1.1387    2.1904    0.0000 N   0  0  0  0  0  0  0  0  0  0  0  0
    1.9233    1.9354    0.0000 C   0  0  0  0  0  0  0  0  0  0  0  0
    2.6378    2.3479    0.0000 C   0  0  0  0  0  0  0  0  0  0  0  0
  1  2  1  0  0  0  0
  2  3  1  0  0  0  0
  3  4  2  0  0  0  0
  3  5  1  0  0  0  0
  5  6  4  0  0  0  0
  6  7  4  0  0  0  0
  7  8  4  0  0  0  0
  8  9  4  0  0  0  0
  9 10  1  0  0  0  0
 10 11  1  0  0  0  0
 11 12  1  0  0  0  0
 12 13  1  0  0  0  0
 13 14  2  0  0  0  0
 13 15  1  0  0  0  0
 15 16  1  0  0  0  0
 16 17  1  0  0  0  0
 16 18  1  0  0  0  0
 16 19  1  0  0  0  0
  9 20  4  0  0  0  0
 20 21  4  0  0  0  0
 21 22  4  0  0  0  0
  8 22  4  0  0  0  0
 22 23  4  0  0  0  0
  5 23  4  0  0  0  0
 20 24  1  0  0  0  0
 24 25  4  0  0  0  0
 25 26  4  0  0  0  0
 26 27  4  0  0  0  0
 27 28  4  0  0  0  0
 28 29  1  0  0  0  0
 28 30  4  0  0  0  0
 30 31  4  0  0  0  0
 31 32  4  0  0  0  0
 27 32  4  0  0  0  0
 32 33  4  0  0  0  0
 24 33  4  0  0  0  0
M  END
> <ID>
CPD_3240

$$$$
CPD_3245
  Mrv1822 09091914012D          

 37 40  0  0  0  0            999 V2000
    4.7812    3.5854    0.0000 C   0  0  0  0  0  0  0  0  0  0  0  0
    4.0668    3.1729    0.0000 O   0  0  0  0  0  0  0  0  0  0  0  0
    4.0668    2.3479    0.0000 C   0  0  0  0  0  0  0  0  0  0  0  0
    4.7812    1.9354    0.0000 O   0  0  0  0  0  0  0  0  0  0  0  0
    3.3523    1.9354    0.0000 C   0  0  0  0  0  0  0  0  0  0  0  0
    3.3523    1.1104    0.0000 C   0  0  0  0  0  0  0  0  0  0  0  0
    2.6378    0.6979    0.0000 C   0  0  0  0  0  0  0  0  0  0  0  0
    1.9233    1.1104    0.0000 C   0  0  0  0  0  0  0  0  0  0  0  0
    1.1387    0.8555    0.0000 N   0  0  0  0  0  0  0  0  0  0  0  0
    0.8838    0.0709    0.0000 C   0  0  0  0  0  0  0  0  0  0  0  0
    1.4358   -0.5422    0.0000 C   0  0  0  0  0  0  0  0  0  0  0  0
    1.1809   -1.3268    0.0000 N   0  0  0  0  0  0  0  0  0  0  0  0
    1.7329   -1.9399    0.0000 C   0  0  0  0  0  0  0  0  0  0  0  0
    2.5399   -1.7684    0.0000 O   0  0  0  0  0  0  0  0  0  0  0  0
    1.4780   -2.7246    0.0000 O   0  0  0  0  0  0  0  0  0  0  0  0
    2.0300   -3.3376    0.0000 C   0  0  0  0  0  0  0  0  0  0  0  0
    2.5820   -3.9507    0.0000 C   0  0  0  0  0  0  0  0  0  0  0  0
    2.6431   -2.7856    0.0000 C   0  0  0  0  0  0  0  0  0  0  0  0
    1.4169   -3.8897    0.0000 C   0  0  0  0  0  0  0  0  0  0  0  0
    0.6538    1.5229    0.0000 C   0  0  0  0  0  0  0  0  0  0  0  0
    1.1387    2.1904    0.0000 N   0  0  0  0  0  0  0  0  0  0  0  0
    1.9233    1.9354    0.0000 C   0  0  0  0  0  0  0  0  0  0  0  0
    2.6378    2.3479    0.0000 C   0  0  0  0  0  0  0  0  0  0  0  0
   -0.1712    1.5229    0.0000 C   0  0  0  0  0  0  0  0  0  0  0  0
   -0.5837    0.8085    0.0000 C   0  0  0  0  0  0  0  0  0  0  0  0
   -1.4087    0.8085    0.0000 C   0  0  0  0  0  0  0  0  0  0  0  0
   -1.8212    1.5229    0.0000 C   0  0  0  0  0  0  0  0  0  0  0  0
   -1.4087    2.2374    0.0000 C   0  0  0  0  0  0  0  0  0  0  0  0
   -0.5837    2.2374    0.0000 C   0  0  0  0  0  0  0  0  0  0  0  0
   -2.6462    1.5229    0.0000 C   0  0  0  0  0  0  0  0  0  0  0  0
   -3.0587    0.8085    0.0000 C   0  0  0  0  0  0  0  0  0  0  0  0
   -3.8837    0.8085    0.0000 C   0  0  0  0  0  0  0  0  0  0  0  0
   -4.2962    1.5229    0.0000 C   0  0  0  0  0  0  0  0  0  0  0  0
   -3.8837    2.2374    0.0000 N   0  0  0  0  0  0  0  0  0  0  0  0
   -3.0587    2.2374    0.0000 C   0  0  0  0  0  0  0  0  0  0  0  0
   -2.6462    2.9519    0.0000 C   0  0  0  0  0  0  0  0  0  0  0  0
   -2.2337    3.6664    0.0000 N   0  0  0  0  0  0  0  0  0  0  0  0
  1  2  1  0  0  0  0
  2  3  1  0  0  0  0
  3  4  2  0  0  0  0
  3  5  1  0  0  0  0
  5  6  4  0  0  0  0
  6  7  4  0  0  0  0
  7  8  4  0  0  0  0
  8  9  4  0  0  0  0
  9 10  1  0  0  0  0
 10 11  1  0  0  0  0
 11 12  1  0  0  0  0
 12 13  1  0  0  0  0
 13 14  2  0  0  0  0
 13 15  1  0  0  0  0
 15 16  1  0  0  0  0
 16 17  1  0  0  0  0
 16 18  1  0  0  0  0
 16 19  1  0  0  0  0
  9 20  4  0  0  0  0
 20 21  4  0  0  0  0
 21 22  4  0  0  0  0
  8 22  4  0  0  0  0
 22 23  4  0  0  0  0
  5 23  4  0  0  0  0
 20 24  1  0  0  0  0
 24 25  4  0  0  0  0
 25 26  4  0  0  0  0
 26 27  4  0  0  0  0
 27 28  4  0  0  0  0
 28 29  4  0  0  0  0
 24 29  4  0  0  0  0
 27 30  1  0  0  0  0
 30 31  4  0  0  0  0
 31 32  4  0  0  0  0
 32 33  4  0  0  0  0
 33 34  4  0  0  0  0
 34 35  4  0  0  0  0
 30 35  4  0  0  0  0
 35 36  1  0  0  0  0
 36 37  3  0  0  0  0
M  END
> <ID>
CPD_3245

$$$$
CPD_3250
  Mrv1822 09091914012D          

 32 36  0  0  0  0            999 V2000
    5.4957    2.3479    0.0000 C   0  0  0  0  0  0  0  0  0  0  0  0
    4.7812    1.9354    0.0000 O   0  0  0  0  0  0  0  0  0  0  0  0
    4.0668    2.3479    0.0000 C   0  0  0  0  0  0  0  0  0  0  0  0
    4.0668    3.1729    0.0000 O   0  0  0  0  0  0  0  0  0  0  0  0
    3.3523    1.9354    0.0000 C   0  0  0  0  0  0  0  0  0  0  0  0
    3.3523    1.1104    0.0000 C   0  0  0  0  0  0  0  0  0  0  0  0
    2.6378    0.6979    0.0000 C   0  0  0  0  0  0  0  0  0  0  0  0
    1.9233    1.1104    0.0000 C   0  0  0  0  0  0  0  0  0  0  0  0
    1.1387    0.8555    0.0000 N   0  0  0  0  0  0  0  0  0  0  0  0
    0.8838    0.0709    0.0000 C   0  0  0  0  0  0  0  0  0  0  0  0
    1.4358   -0.5422    0.0000 C   0  0  0  0  0  0  0  0  0  0  0  0
    1.1809   -1.3268    0.0000 C   0  0  0  0  0  0  0  0  0  0  0  0
    0.3739   -1.4984    0.0000 C   0  0  0  0  0  0  0  0  0  0  0  0
   -0.1781   -0.8853    0.0000 C   0  0  0  0  0  0  0  0  0  0  0  0
    0.0768   -0.1006    0.0000 C   0  0  0  0  0  0  0  0  0  0  0  0
    0.6538    1.5229    0.0000 C   0  0  0  0  0  0  0  0  0  0  0  0
    1.1387    2.1904    0.0000 N   0  0  0  0  0  0  0  0  0  0  0  0
    1.9233    1.9354    0.0000 C   0  0  0  0  0  0  0  0  0  0  0  0
    2.6378    2.3479    0.0000 C   0  0  0  0  0  0  0  0  0  0  0  0
   -0.1712    1.5229    0.0000 C   0  0  0  0  0  0  0  0  0  0  0  0
   -0.6561    0.8555    0.0000 C   0  0  0  0  0  0  0  0  0  0  0  0
   -0.4012    0.0709    0.0000 N   0  0  0  0  0  0  0  0  0  0  0  0
   -1.4407    1.1104    0.0000 S   0  0  0  0  0  0  0  0  0  0  0  0
   -1.4407    1.9354    0.0000 C   0  0  0  0  0  0  0  0  0  0  0  0
   -0.6561    2.1904    0.0000 C   0  0  0  0  0  0  0  0  0  0  0  0
   -0.4012    2.9750    0.0000 C   0  0  0  0  0  0  0  0  0  0  0  0
   -0.9532    3.5881    0.0000 C   0  0  0  0  0  0  0  0  0  0  0  0
   -0.6983    4.3727    0.0000 C   0  0  0  0  0  0  0  0  0  0  0  0
    0.1087    4.5442    0.0000 C   0  0  0  0  0  0  0  0  0  0  0  0
    0.3636    5.3289    0.0000 F   0  0  0  0  0  0  0  0  0  0  0  0
    0.6607    3.9312    0.0000 C   0  0  0  0  0  0  0  0  0  0  0  0
    0.4058    3.1465    0.0000 C   0  0  0  0  0  0  0  0  0  0  0  0
  1  2  1  0  0  0  0
  2  3  1  0  0  0  0
  3  4  2  0  0  0  0
  3  5  1  0  0  0  0
  5  6  4  0  0  0  0
  6  7  4  0  0  0  0
  7  8  4  0  0  0  0
  8  9  4  0  0  0  0
  9 10  1  0  0  0  0
 10 11  1  0  0  0  0
 11 12  1  0  0  0  0
 12 13  1  0  0  0  0
 13 14  1  0  0  0  0
 14 15  1  0  0  0  0
 10 15  1  0  0  0  0
  9 16  4  0  0  0  0
 16 17  4  0  0  0  0
 17 18  4  0  0  0  0
  8 18  4  0  0  0  0
 18 19  4  0  0  0  0
  5 19  4  0  0  0  0
 16 20  1  0  0  0  0
 20 21  4  0  0  0  0
 21 22  1  0  0  0  0
 21 23  4  0  0  0  0
 23 24  4  0  0  0  0
 24 25  4  0  0  0  0
 20 25  4  0  0  0  0
 25 26  1  0  0  0  0
 26 27  4  0  0  0  0
 27 28  4  0  0  0  0
 28 29  4  0  0  0  0
 29 30  1  0  0  0  0
 29 31  4  0  0  0  0
 31 32  4  0  0  0  0
 26 32  4  0  0  0  0
M  END
> <ID>
CPD_3250

$$$$
CPD_3255
  Mrv1822 09091914012D          

 33 37  0  0  0  0            999 V2000
    7.6391    6.8854    0.0000 C   0  0  0  0  0  0  0  0  0  0  0  0
    7.6391    6.0604    0.0000 N   0  0  0  0  0  0  0  0  0  0  0  0
    8.3536    5.6479    0.0000 C   0  0  0  0  0  0  0  0  0  0  0  0
    8.3536    4.8229    0.0000 C   0  0  0  0  0  0  0  0  0  0  0  0
    7.6391    4.4104    0.0000 N   0  0  0  0  0  0  0  0  0  0  0  0
    7.6391    3.5854    0.0000 C   0  0  0  0  0  0  0  0  0  0  0  0
    6.9246    3.1729    0.0000 C   0  0  0  0  0  0  0  0  0  0  0  0
    6.9246    2.3479    0.0000 C   0  0  0  0  0  0  0  0  0  0  0  0
    6.2102    1.9354    0.0000 C   0  0  0  0  0  0  0  0  0  0  0  0
    5.4957    2.3479    0.0000 C   0  0  0  0  0  0  0  0  0  0  0  0
    4.7812    1.9354    0.0000 N   0  0  0  0  0  0  0  0  0  0  0  0
    4.0668    2.3479    0.0000 C   0  0  0  0  0  0  0  0  0  0  0  0
    4.0668    3.1729    0.0000 O   0  0  0  0  0  0  0  0  0  0  0  0
    3.3523    1.9354    0.0000 C   0  0  0  0  0  0  0  0  0  0  0  0
    3.3523    1.1104    0.0000 C   0  0  0  0  0  0  0  0  0  0  0  0
    2.6378    0.6979    0.0000 C   0  0  0  0  0  0  0  0  0  0  0  0
    1.9233    1.1104    0.0000 C   0  0  0  0  0  0  0  0  0  0  0  0
    1.1387    0.8555    0.0000 N   0  0  0  0  0  0  0  0  0  0  0  0
    0.6538    1.5229    0.0000 C   0  0  0  0  0  0  0  0  0  0  0  0
    1.1387    2.1904    0.0000 N   0  0  0  0  0  0  0  0  0  0  0  0
    1.9233    1.9354    0.0000 C   0  0  0  0  0  0  0  0  0  0  0  0
    2.6378    2.3479    0.0000 C   0  0  0  0  0  0  0  0  0  0  0  0
   -0.1712    1.5229    0.0000 C   0  0  0  0  0  0  0  0  0  0  0  0
   -0.5837    0.8085    0.0000 C   0  0  0  0  0  0  0  0  0  0  0  0
   -1.4087    0.8085    0.0000 N   0  0  0  0  0  0  0  0  0  0  0  0
   -1.8212    1.5229    0.0000 C   0  0  0  0  0  0  0  0  0  0  0  0
   -1.4087    2.2374    0.0000 C   0  0  0  0  0  0  0  0  0  0  0  0
   -0.5837    2.2374    0.0000 C   0  0  0  0  0  0  0  0  0  0  0  0
   -0.1712    2.9519    0.0000 Cl  0  0  0  0  0  0  0  0  0  0  0  0
    5.4957    3.1729    0.0000 C   0  0  0  0  0  0  0  0  0  0  0  0
    6.2102    3.5854    0.0000 C   0  0  0  0  0  0  0  0  0  0  0  0
    6.9246    4.8229    0.0000 C   0  0  0  0  0  0  0  0  0  0  0  0
    6.9246    5.6479    0.0000 C   0  0  0  0  0  0  0  0  0  0  0  0
  1  2  1  0  0  0  0
  2  3  1  0  0  0  0
  3  4  1  0  0  0  0
  4  5  1  0  0  0  0
  5  6  1  0  0  0  0
  6  7  1  0  0  0  0
  7  8  4  0  0  0  0
  8  9  4  0  0  0  0
  9 10  4  0  0  0  0
 10 11  1  0  0  0  0
 11 12  1  0  0  0  0
 12 13  2  0  0  0  0
 12 14  1  0  0  0  0
 14 15  4  0  0  0  0
 15 16  4  0  0  0  0
 16 17  4  0  0  0  0
 17 18  4  0  0  0  0
 18 19  4  0  0  0  0
 19 20  4  0  0  0  0
 20 21  4  0  0  0  0
 17 21  4  0  0  0  0
 21 22  4  0  0  0  0
 14 22  4  0  0  0  0
 19 23  1  0  0  0  0
 23 24  4  0  0  0  0
 24 25  4  0  0  0  0
 25 26  4  0  0  0  0
 26 27  4  0  0  0  0
 27 28  4  0  0  0  0
 23 28  4  0  0  0  0
 28 29  1  0  0  0  0
 10 30  4  0  0  0  0
 30 31  4  0  0  0  0
  7 31  4  0  0  0  0
  5 32  1  0  0  0  0
 32 33  1  0  0  0  0
  2 33  1  0  0  0  0
M  STY  1   1 DAT
M  SAL   1  1  20
M  SDT   1 MRV_IMPLICIT_H                                        
M  SDD   1     0.5304   -0.4125    DR    ALL  0       0  
M  SED   1 IMPL_H1
M  END
> <ID>
CPD_3255

$$$$
CPD_3260
  Mrv1822 09091914012D          

 33 37  0  0  0  0            999 V2000
    7.6391    6.8854    0.0000 C   0  0  0  0  0  0  0  0  0  0  0  0
    7.6391    6.0604    0.0000 N   0  0  0  0  0  0  0  0  0  0  0  0
    8.3536    5.6479    0.0000 C   0  0  0  0  0  0  0  0  0  0  0  0
    8.3536    4.8229    0.0000 C   0  0  0  0  0  0  0  0  0  0  0  0
    7.6391    4.4104    0.0000 N   0  0  0  0  0  0  0  0  0  0  0  0
    7.6391    3.5854    0.0000 C   0  0  0  0  0  0  0  0  0  0  0  0
    6.9246    3.1729    0.0000 C   0  0  0  0  0  0  0  0  0  0  0  0
    6.9246    2.3479    0.0000 C   0  0  0  0  0  0  0  0  0  0  0  0
    6.2102    1.9354    0.0000 C   0  0  0  0  0  0  0  0  0  0  0  0
    5.4957    2.3479    0.0000 C   0  0  0  0  0  0  0  0  0  0  0  0
    4.7812    1.9354    0.0000 N   0  0  0  0  0  0  0  0  0  0  0  0
    4.0668    2.3479    0.0000 C   0  0  0  0  0  0  0  0  0  0  0  0
    4.0668    3.1729    0.0000 O   0  0  0  0  0  0  0  0  0  0  0  0
    3.3523    1.9354    0.0000 C   0  0  0  0  0  0  0  0  0  0  0  0
    3.3523    1.1104    0.0000 C   0  0  0  0  0  0  0  0  0  0  0  0
    2.6378    0.6979    0.0000 C   0  0  0  0  0  0  0  0  0  0  0  0
    1.9233    1.1104    0.0000 C   0  0  0  0  0  0  0  0  0  0  0  0
    1.1387    0.8555    0.0000 N   0  0  0  0  0  0  0  0  0  0  0  0
    0.6538    1.5229    0.0000 C   0  0  0  0  0  0  0  0  0  0  0  0
    1.1387    2.1904    0.0000 N   0  0  0  0  0  0  0  0  0  0  0  0
    1.9233    1.9354    0.0000 C   0  0  0  0  0  0  0  0  0  0  0  0
    2.6378    2.3479    0.0000 C   0  0  0  0  0  0  0  0  0  0  0  0
   -0.1712    1.5229    0.0000 C   0  0  0  0  0  0  0  0  0  0  0  0
   -0.5837    0.8085    0.0000 C   0  0  0  0  0  0  0  0  0  0  0  0
   -1.4087    0.8085    0.0000 C   0  0  0  0  0  0  0  0  0  0  0  0
   -1.8212    1.5229    0.0000 C   0  0  0  0  0  0  0  0  0  0  0  0
   -1.4087    2.2374    0.0000 C   0  0  0  0  0  0  0  0  0  0  0  0
   -0.5837    2.2374    0.0000 C   0  0  0  0  0  0  0  0  0  0  0  0
   -0.1712    2.9519    0.0000 N   0  0  0  0  0  0  0  0  0  0  0  0
    5.4957    3.1729    0.0000 C   0  0  0  0  0  0  0  0  0  0  0  0
    6.2102    3.5854    0.0000 C   0  0  0  0  0  0  0  0  0  0  0  0
    6.9246    4.8229    0.0000 C   0  0  0  0  0  0  0  0  0  0  0  0
    6.9246    5.6479    0.0000 C   0  0  0  0  0  0  0  0  0  0  0  0
  1  2  1  0  0  0  0
  2  3  1  0  0  0  0
  3  4  1  0  0  0  0
  4  5  1  0  0  0  0
  5  6  1  0  0  0  0
  6  7  1  0  0  0  0
  7  8  4  0  0  0  0
  8  9  4  0  0  0  0
  9 10  4  0  0  0  0
 10 11  1  0  0  0  0
 11 12  1  0  0  0  0
 12 13  2  0  0  0  0
 12 14  1  0  0  0  0
 14 15  4  0  0  0  0
 15 16  4  0  0  0  0
 16 17  4  0  0  0  0
 17 18  4  0  0  0  0
 18 19  4  0  0  0  0
 19 20  4  0  0  0  0
 20 21  4  0  0  0  0
 17 21  4  0  0  0  0
 21 22  4  0  0  0  0
 14 22  4  0  0  0  0
 19 23  1  0  0  0  0
 23 24  4  0  0  0  0
 24 25  4  0  0  0  0
 25 26  4  0  0  0  0
 26 27  4  0  0  0  0
 27 28  4  0  0  0  0
 23 28  4  0  0  0  0
 28 29  1  0  0  0  0
 10 30  4  0  0  0  0
 30 31  4  0  0  0  0
  7 31  4  0  0  0  0
  5 32  1  0  0  0  0
 32 33  1  0  0  0  0
  2 33  1  0  0  0  0
M  STY  1   1 DAT
M  SAL   1  1  20
M  SDT   1 MRV_IMPLICIT_H                                        
M  SDD   1     0.5304   -0.4125    DR    ALL  0       0  
M  SED   1 IMPL_H1
M  END
> <ID>
CPD_3260

$$$$
CPD_3265
  Mrv1822 09091914012D          

 39 43  0  0  0  0            999 V2000
    0.4125   -1.6820    0.0000 C   0  0  0  0  0  0  0  0  0  0  0  0
   -0.4125   -1.6820    0.0000 C   0  0  0  0  0  0  0  0  0  0  0  0
   -0.6674   -0.8974    0.0000 N   0  0  0  0  0  0  0  0  0  0  0  0
    0.0000   -0.4125    0.0000 C   0  0  0  0  0  0  0  0  0  0  0  0
    0.6674   -0.8974    0.0000 C   0  0  0  0  0  0  0  0  0  0  0  0
    0.0000    0.4125    0.0000 C   0  0  0  0  0  0  0  0  0  0  0  0
   -0.6674    0.8974    0.0000 C   0  0  0  0  0  0  0  0  0  0  0  0
   -0.4125    1.6820    0.0000 C   0  0  0  0  0  0  0  0  0  0  0  0
    0.4125    1.6820    0.0000 C   0  0  0  0  0  0  0  0  0  0  0  0
    0.6674    0.8974    0.0000 O   0  0  0  0  0  0  0  0  0  0  0  0
   10.7760    3.9828    0.0000 C   0  0  0  0  0  0  0  0  0  0  0  0
   10.7760    3.1578    0.0000 N   0  0  0  0  0  0  0  0  0  0  0  0
   11.4904    2.7453    0.0000 C   0  0  0  0  0  0  0  0  0  0  0  0
   11.4904    1.9203    0.0000 C   0  0  0  0  0  0  0  0  0  0  0  0
   10.7760    1.5078    0.0000 N   0  0  0  0  0  0  0  0  0  0  0  0
   10.7760    0.6828    0.0000 C   0  0  0  0  0  0  0  0  0  0  0  0
   10.0615    0.2703    0.0000 C   0  0  0  0  0  0  0  0  0  0  0  0
   10.0615   -0.5547    0.0000 C   0  0  0  0  0  0  0  0  0  0  0  0
    9.3470   -0.9672    0.0000 C   0  0  0  0  0  0  0  0  0  0  0  0
    8.6326   -0.5547    0.0000 C   0  0  0  0  0  0  0  0  0  0  0  0
    7.9181   -0.9672    0.0000 N   0  0  0  0  0  0  0  0  0  0  0  0
    7.2036   -0.5547    0.0000 C   0  0  0  0  0  0  0  0  0  0  0  0
    7.2036    0.2703    0.0000 O   0  0  0  0  0  0  0  0  0  0  0  0
    6.4891   -0.9672    0.0000 C   0  0  0  0  0  0  0  0  0  0  0  0
    6.4891   -1.7922    0.0000 C   0  0  0  0  0  0  0  0  0  0  0  0
    5.7747   -2.2047    0.0000 C   0  0  0  0  0  0  0  0  0  0  0  0
    5.0602   -1.7922    0.0000 C   0  0  0  0  0  0  0  0  0  0  0  0
    4.2756   -2.0472    0.0000 N   0  0  0  0  0  0  0  0  0  0  0  0
    3.7907   -1.3797    0.0000 C   0  0  0  0  0  0  0  0  0  0  0  0
    4.2756   -0.7123    0.0000 N   0  0  0  0  0  0  0  0  0  0  0  0
    5.0602   -0.9672    0.0000 C   0  0  0  0  0  0  0  0  0  0  0  0
    5.7747   -0.5547    0.0000 C   0  0  0  0  0  0  0  0  0  0  0  0
    2.9657   -1.3797    0.0000 C   0  0  0  0  0  0  0  0  0  0  0  0
    2.5532   -2.0942    0.0000 O   0  0  0  0  0  0  0  0  0  0  0  0
    2.5532   -0.6653    0.0000 O   0  0  0  0  0  0  0  0  0  0  0  0
    8.6326    0.2703    0.0000 C   0  0  0  0  0  0  0  0  0  0  0  0
    9.3470    0.6828    0.0000 C   0  0  0  0  0  0  0  0  0  0  0  0
   10.0615    1.9203    0.0000 C   0  0  0  0  0  0  0  0  0  0  0  0
   10.0615    2.7453    0.0000 C   0  0  0  0  0  0  0  0  0  0  0  0
  1  2  1  0  0  0  0
  2  3  1  0  0  0  0
  3  4  1  0  0  0  0
  4  5  1  0  0  0  0
  1  5  1  0  0  0  0
  4  6  1  0  0  0  0
  6  7  4  0  0  0  0
  7  8  4  0  0  0  0
  8  9  4  0  0  0  0
  9 10  4  0  0  0  0
  6 10  4  0  0  0  0
 11 12  1  0  0  0  0
 12 13  1  0  0  0  0
 13 14  1  0  0  0  0
 14 15  1  0  0  0  0
 15 16  1  0  0  0  0
 16 17  1  0  0  0  0
 17 18  4  0  0  0  0
 18 19  4  0  0  0  0
 19 20  4  0  0  0  0
 20 21  1  0  0  0  0
 21 22  1  0  0  0  0
 22 23  2  0  0  0  0
 22 24  1  0  0  0  0
 24 25  4  0  0  0  0
 25 26  4  0  0  0  0
 26 27  4  0  0  0  0
 27 28  4  0  0  0  0
 28 29  4  0  0  0  0
 29 30  4  0  0  0  0
 30 31  4  0  0  0  0
 27 31  4  0  0  0  0
 31 32  4  0  0  0  0
 24 32  4  0  0  0  0
 29 33  1  0  0  0  0
 33 34  1  0  0  0  0
 33 35  2  0  0  0  0
 20 36  4  0  0  0  0
 36 37  4  0  0  0  0
 17 37  4  0  0  0  0
 15 38  1  0  0  0  0
 38 39  1  0  0  0  0
 12 39  1  0  0  0  0
M  STY  1   1 DAT
M  SAL   1  1  30
M  SDT   1 MRV_IMPLICIT_H                                        
M  SDD   1     0.5304   -0.4125    DR    ALL  0       0  
M  SED   1 IMPL_H1
M  END
> <ID>
CPD_3265

$$$$
CPD_3270
  Mrv1822 09091914012D          

 18 20  0  0  0  0            999 V2000
   -2.1082    0.1995    0.0000 C   0  0  0  0  0  0  0  0  0  0  0  0
   -1.4407   -0.2854    0.0000 C   0  0  0  0  0  0  0  0  0  0  0  0
   -0.6561   -0.0305    0.0000 N   0  0  0  0  0  0  0  0  0  0  0  0
   -0.1712   -0.6979    0.0000 C   0  0  0  0  0  0  0  0  0  0  0  0
   -0.6561   -1.3654    0.0000 S   0  0  0  0  0  0  0  0  0  0  0  0
   -1.4407   -1.1104    0.0000 C   0  0  0  0  0  0  0  0  0  0  0  0
   -2.1082   -1.5954    0.0000 Br  0  0  0  0  0  0  0  0  0  0  0  0
    0.6538   -0.6979    0.0000 C   0  0  0  0  0  0  0  0  0  0  0  0
    1.1387   -0.0305    0.0000 N   0  0  0  0  0  0  0  0  0  0  0  0
    1.9233   -0.2854    0.0000 C   0  0  0  0  0  0  0  0  0  0  0  0
    2.6378    0.1271    0.0000 C   0  0  0  0  0  0  0  0  0  0  0  0
    3.3523   -0.2854    0.0000 C   0  0  0  0  0  0  0  0  0  0  0  0
    3.3523   -1.1104    0.0000 C   0  0  0  0  0  0  0  0  0  0  0  0
    2.6378   -1.5229    0.0000 C   0  0  0  0  0  0  0  0  0  0  0  0
    1.9233   -1.1104    0.0000 C   0  0  0  0  0  0  0  0  0  0  0  0
    1.1387   -1.3654    0.0000 O   0  0  0  0  0  0  0  0  0  0  0  0
    4.0668   -1.5229    0.0000 C   0  0  0  0  0  0  0  0  0  0  0  0
    4.7812   -1.9354    0.0000 N   0  0  0  0  0  0  0  0  0  0  0  0
  1  2  1  0  0  0  0
  2  3  4  0  0  0  0
  3  4  4  0  0  0  0
  4  5  4  0  0  0  0
  5  6  4  0  0  0  0
  2  6  4  0  0  0  0
  6  7  1  0  0  0  0
  4  8  1  0  0  0  0
  8  9  4  0  0  0  0
  9 10  4  0  0  0  0
 10 11  4  0  0  0  0
 11 12  4  0  0  0  0
 12 13  4  0  0  0  0
 13 14  4  0  0  0  0
 14 15  4  0  0  0  0
 10 15  4  0  0  0  0
 15 16  4  0  0  0  0
  8 16  4  0  0  0  0
 13 17  1  0  0  0  0
 17 18  3  0  0  0  0
M  END
> <ID>
CPD_3270

$$$$
CPD_3275
  Mrv1822 09091914012D          

 25 28  0  0  0  0            999 V2000
   -1.0054    2.8001    0.0000 C   0  0  0  0  0  0  0  0  0  0  0  0
   -1.1487    1.9876    0.0000 O   0  0  0  0  0  0  0  0  0  0  0  0
   -0.5167    1.4573    0.0000 C   0  0  0  0  0  0  0  0  0  0  0  0
    0.2586    1.7395    0.0000 C   0  0  0  0  0  0  0  0  0  0  0  0
    0.8906    1.2092    0.0000 C   0  0  0  0  0  0  0  0  0  0  0  0
    0.7473    0.3967    0.0000 C   0  0  0  0  0  0  0  0  0  0  0  0
   -0.0279    0.1145    0.0000 C   0  0  0  0  0  0  0  0  0  0  0  0
   -0.6599    0.6448    0.0000 C   0  0  0  0  0  0  0  0  0  0  0  0
   -0.1712   -0.6979    0.0000 C   0  0  0  0  0  0  0  0  0  0  0  0
   -0.0279   -1.5104    0.0000 C   0  0  0  0  0  0  0  0  0  0  0  0
   -0.6599   -2.0407    0.0000 C   0  0  0  0  0  0  0  0  0  0  0  0
   -1.4352   -1.7585    0.0000 O   0  0  0  0  0  0  0  0  0  0  0  0
   -1.5784   -0.9461    0.0000 C   0  0  0  0  0  0  0  0  0  0  0  0
   -0.9464   -0.4158    0.0000 C   0  0  0  0  0  0  0  0  0  0  0  0
    0.6538   -0.6979    0.0000 C   0  0  0  0  0  0  0  0  0  0  0  0
    1.1387   -0.0305    0.0000 N   0  0  0  0  0  0  0  0  0  0  0  0
    1.9233   -0.2854    0.0000 C   0  0  0  0  0  0  0  0  0  0  0  0
    2.6378    0.1271    0.0000 C   0  0  0  0  0  0  0  0  0  0  0  0
    3.3523   -0.2854    0.0000 C   0  0  0  0  0  0  0  0  0  0  0  0
    3.3523   -1.1104    0.0000 C   0  0  0  0  0  0  0  0  0  0  0  0
    2.6378   -1.5229    0.0000 C   0  0  0  0  0  0  0  0  0  0  0  0
    1.9233   -1.1104    0.0000 C   0  0  0  0  0  0  0  0  0  0  0  0
    1.1387   -1.3654    0.0000 O   0  0  0  0  0  0  0  0  0  0  0  0
    4.0668   -1.5229    0.0000 C   0  0  0  0  0  0  0  0  0  0  0  0
    4.7812   -1.9354    0.0000 N   0  0  0  0  0  0  0  0  0  0  0  0
  1  2  1  0  0  0  0
  2  3  1  0  0  0  0
  3  4  4  0  0  0  0
  4  5  4  0  0  0  0
  5  6  4  0  0  0  0
  6  7  4  0  0  0  0
  7  8  4  0  0  0  0
  3  8  4  0  0  0  0
  7  9  1  0  0  0  0
  9 10  1  0  0  0  0
 10 11  1  0  0  0  0
 11 12  1  0  0  0  0
 12 13  1  0  0  0  0
 13 14  1  0  0  0  0
  9 14  1  0  0  0  0
  9 15  1  0  0  0  0
 15 16  4  0  0  0  0
 16 17  4  0  0  0  0
 17 18  4  0  0  0  0
 18 19  4  0  0  0  0
 19 20  4  0  0  0  0
 20 21  4  0  0  0  0
 21 22  4  0  0  0  0
 17 22  4  0  0  0  0
 22 23  4  0  0  0  0
 15 23  4  0  0  0  0
 20 24  1  0  0  0  0
 24 25  3  0  0  0  0
M  END
> <ID>
CPD_3275

$$$$
CPD_3280
  Mrv1822 09091914012D          

 19 21  0  0  0  0            999 V2000
   -0.9532   -2.7631    0.0000 C   0  0  0  0  0  0  0  0  0  0  0  0
   -0.4012   -2.1500    0.0000 C   0  0  0  0  0  0  0  0  0  0  0  0
   -0.6561   -1.3654    0.0000 N   0  0  0  0  0  0  0  0  0  0  0  0
   -1.4407   -1.1104    0.0000 N   0  0  0  0  0  0  0  0  0  0  0  0
   -1.4407   -0.2854    0.0000 C   0  0  0  0  0  0  0  0  0  0  0  0
   -0.6561   -0.0305    0.0000 C   0  0  0  0  0  0  0  0  0  0  0  0
   -0.4012    0.7541    0.0000 Br  0  0  0  0  0  0  0  0  0  0  0  0
   -0.1712   -0.6979    0.0000 C   0  0  0  0  0  0  0  0  0  0  0  0
    0.6538   -0.6979    0.0000 C   0  0  0  0  0  0  0  0  0  0  0  0
    1.1387   -0.0305    0.0000 N   0  0  0  0  0  0  0  0  0  0  0  0
    1.9233   -0.2854    0.0000 C   0  0  0  0  0  0  0  0  0  0  0  0
    2.6378    0.1271    0.0000 C   0  0  0  0  0  0  0  0  0  0  0  0
    3.3523   -0.2854    0.0000 C   0  0  0  0  0  0  0  0  0  0  0  0
    3.3523   -1.1104    0.0000 C   0  0  0  0  0  0  0  0  0  0  0  0
    2.6378   -1.5229    0.0000 C   0  0  0  0  0  0  0  0  0  0  0  0
    1.9233   -1.1104    0.0000 C   0  0  0  0  0  0  0  0  0  0  0  0
    1.1387   -1.3654    0.0000 O   0  0  0  0  0  0  0  0  0  0  0  0
    4.0668   -1.5229    0.0000 C   0  0  0  0  0  0  0  0  0  0  0  0
    4.7812   -1.9354    0.0000 N   0  0  0  0  0  0  0  0  0  0  0  0
  1  2  1  0  0  0  0
  2  3  1  0  0  0  0
  3  4  4  0  0  0  0
  4  5  4  0  0  0  0
  5  6  4  0  0  0  0
  6  7  1  0  0  0  0
  6  8  4  0  0  0  0
  3  8  4  0  0  0  0
  8  9  1  0  0  0  0
  9 10  4  0  0  0  0
 10 11  4  0  0  0  0
 11 12  4  0  0  0  0
 12 13  4  0  0  0  0
 13 14  4  0  0  0  0
 14 15  4  0  0  0  0
 15 16  4  0  0  0  0
 11 16  4  0  0  0  0
 16 17  4  0  0  0  0
  9 17  4  0  0  0  0
 14 18  1  0  0  0  0
 18 19  3  0  0  0  0
M  END
> <ID>
CPD_3280

$$$$
CPD_3285
  Mrv1822 09091914012D          

 32 33  0  0  0  0            999 V2000
    5.7327   -1.8416    0.0000 C   0  0  0  0  0  0  0  0  0  0  0  0
    4.9226   -1.9975    0.0000 C   0  0  0  0  0  0  0  0  0  0  0  0
    4.6525   -2.7770    0.0000 C   0  0  0  0  0  0  0  0  0  0  0  0
    3.8424   -2.9329    0.0000 N   0  0  0  0  0  0  0  0  0  0  0  0
    3.3023   -2.3093    0.0000 C   0  0  0  0  0  0  0  0  0  0  0  0
    2.4922   -2.4652    0.0000 C   0  0  0  0  0  0  0  0  0  0  0  0
    1.9521   -1.8416    0.0000 C   0  0  0  0  0  0  0  0  0  0  0  0
    2.2221   -1.0620    0.0000 C   0  0  0  0  0  0  0  0  0  0  0  0
    3.0323   -0.9061    0.0000 C   0  0  0  0  0  0  0  0  0  0  0  0
    3.5724   -1.5298    0.0000 C   0  0  0  0  0  0  0  0  0  0  0  0
    1.6820   -0.4384    0.0000 C   0  0  0  0  0  0  0  0  0  0  0  0
    1.1420    0.1853    0.0000 F   0  0  0  0  0  0  0  0  0  0  0  0
    1.0584   -0.9785    0.0000 F   0  0  0  0  0  0  0  0  0  0  0  0
    2.3057    0.1017    0.0000 F   0  0  0  0  0  0  0  0  0  0  0  0
    3.5724   -3.7125    0.0000 S   0  0  0  0  0  0  0  0  0  0  0  0
    2.7928   -3.4425    0.0000 C   0  0  0  0  0  0  0  0  0  0  0  0
    4.3519   -3.9825    0.0000 O   0  0  0  0  0  0  0  0  0  0  0  0
    3.3023   -4.4921    0.0000 O   0  0  0  0  0  0  0  0  0  0  0  0
    5.1926   -3.4007    0.0000 C   0  0  0  0  0  0  0  0  0  0  0  0
    4.9226   -4.1802    0.0000 O   0  0  0  0  0  0  0  0  0  0  0  0
    6.0028   -3.2448    0.0000 O   0  0  0  0  0  0  0  0  0  0  0  0
    6.5428   -3.8684    0.0000 C   0  0  0  0  0  0  0  0  0  0  0  0
    6.2728   -4.6480    0.0000 S   0  0  0  0  0  0  0  0  0  0  0  0
    7.3530   -3.7125    0.0000 N   0  0  0  0  0  0  0  0  0  0  0  0
    7.8931   -4.3361    0.0000 C   0  0  0  0  0  0  0  0  0  0  0  0
    8.7032   -4.1802    0.0000 C   0  0  0  0  0  0  0  0  0  0  0  0
    9.2433   -4.8039    0.0000 C   0  0  0  0  0  0  0  0  0  0  0  0
   10.0534   -4.6480    0.0000 F   0  0  0  0  0  0  0  0  0  0  0  0
    8.9732   -5.5834    0.0000 C   0  0  0  0  0  0  0  0  0  0  0  0
    8.1631   -5.7393    0.0000 C   0  0  0  0  0  0  0  0  0  0  0  0
    7.8931   -6.5189    0.0000 C   0  0  0  0  0  0  0  0  0  0  0  0
    7.6230   -5.1157    0.0000 C   0  0  0  0  0  0  0  0  0  0  0  0
  1  2  1  0  0  0  0
  2  3  1  0  0  0  0
  3  4  1  0  0  0  0
  4  5  1  0  0  0  0
  5  6  2  0  0  0  0
  6  7  1  0  0  0  0
  7  8  2  0  0  0  0
  8  9  1  0  0  0  0
  9 10  2  0  0  0  0
  5 10  1  0  0  0  0
  8 11  1  0  0  0  0
 11 12  1  0  0  0  0
 11 13  1  0  0  0  0
 11 14  1  0  0  0  0
  4 15  1  0  0  0  0
 15 16  1  0  0  0  0
 15 17  2  0  0  0  0
 15 18  2  0  0  0  0
  3 19  1  0  0  0  0
 19 20  2  0  0  0  0
 19 21  1  0  0  0  0
 21 22  1  0  0  0  0
 22 23  2  0  0  0  0
 22 24  1  0  0  0  0
 24 25  1  0  0  0  0
 25 26  2  0  0  0  0
 26 27  1  0  0  0  0
 27 28  1  0  0  0  0
 27 29  2  0  0  0  0
 29 30  1  0  0  0  0
 30 31  1  0  0  0  0
 30 32  2  0  0  0  0
 25 32  1  0  0  0  0
M  END
> <ID>
CPD_3285

$$$$
CPD_3290
  Mrv1822 09091914012D          

 27 29  0  0  0  0            999 V2000
    1.5414   -4.5694    0.0000 C   0  0  0  0  0  0  0  0  0  0  0  0
    1.5414   -5.3944    0.0000 C   0  0  0  0  0  0  0  0  0  0  0  0
    2.2559   -5.8069    0.0000 C   0  0  0  0  0  0  0  0  0  0  0  0
    2.2559   -6.6319    0.0000 C   0  0  0  0  0  0  0  0  0  0  0  0
    2.9704   -7.0444    0.0000 N   0  0  0  0  0  0  0  0  0  0  0  0
    2.9704   -7.8694    0.0000 C   0  0  0  0  0  0  0  0  0  0  0  0
    2.2559   -8.2819    0.0000 S   0  0  0  0  0  0  0  0  0  0  0  0
    3.6848   -8.2819    0.0000 N   0  0  0  0  0  0  0  0  0  0  0  0
    3.6848   -9.1069    0.0000 C   0  0  0  0  0  0  0  0  0  0  0  0
    4.3993   -9.5194    0.0000 C   0  0  0  0  0  0  0  0  0  0  0  0
    4.3993  -10.3444    0.0000 C   0  0  0  0  0  0  0  0  0  0  0  0
    5.1138  -10.7569    0.0000 C   0  0  0  0  0  0  0  0  0  0  0  0
    5.8282  -11.1694    0.0000 N   0  0  0  0  0  0  0  0  0  0  0  0
    3.6848  -10.7569    0.0000 C   0  0  0  0  0  0  0  0  0  0  0  0
    2.9704  -10.3444    0.0000 C   0  0  0  0  0  0  0  0  0  0  0  0
    2.9704   -9.5194    0.0000 C   0  0  0  0  0  0  0  0  0  0  0  0
    3.6848  -11.5819    0.0000 N   0  0  0  0  0  0  0  0  0  0  0  0
    4.4281  -11.9398    0.0000 C   0  0  0  0  0  0  0  0  0  0  0  0
    4.6117  -12.7442    0.0000 C   0  0  0  0  0  0  0  0  0  0  0  0
    4.0973  -13.3892    0.0000 C   0  0  0  0  0  0  0  0  0  0  0  0
    3.2723  -13.3892    0.0000 C   0  0  0  0  0  0  0  0  0  0  0  0
    2.7579  -12.7442    0.0000 C   0  0  0  0  0  0  0  0  0  0  0  0
    2.9415  -11.9398    0.0000 C   0  0  0  0  0  0  0  0  0  0  0  0
    1.5414   -7.0444    0.0000 C   0  0  0  0  0  0  0  0  0  0  0  0
    0.8269   -6.6319    0.0000 C   0  0  0  0  0  0  0  0  0  0  0  0
    0.1125   -7.0444    0.0000 F   0  0  0  0  0  0  0  0  0  0  0  0
    0.8269   -5.8069    0.0000 C   0  0  0  0  0  0  0  0  0  0  0  0
  1  2  1  0  0  0  0
  2  3  2  0  0  0  0
  3  4  1  0  0  0  0
  4  5  1  0  0  0  0
  5  6  1  0  0  0  0
  6  7  2  0  0  0  0
  6  8  1  0  0  0  0
  8  9  1  0  0  0  0
  9 10  2  0  0  0  0
 10 11  1  0  0  0  0
 11 12  1  0  0  0  0
 12 13  3  0  0  0  0
 11 14  2  0  0  0  0
 14 15  1  0  0  0  0
 15 16  2  0  0  0  0
  9 16  1  0  0  0  0
 14 17  1  0  0  0  0
 17 18  1  0  0  0  0
 18 19  1  0  0  0  0
 19 20  1  0  0  0  0
 20 21  1  0  0  0  0
 21 22  1  0  0  0  0
 22 23  1  0  0  0  0
 17 23  1  0  0  0  0
  4 24  2  0  0  0  0
 24 25  1  0  0  0  0
 25 26  1  0  0  0  0
 25 27  2  0  0  0  0
  2 27  1  0  0  0  0
M  END
> <ID>
CPD_3290

$$$$
CPD_3295
  Mrv1822 09091914012D          

 20 22  0  0  0  0            999 V2000
   -0.3984    0.7541    0.0000 O   0  0  0  0  0  0  0  0  0  0  0  0
   -0.1435   -0.0305    0.0000 C   0  0  0  0  0  0  0  0  0  0  0  0
   -0.6284   -0.6979    0.0000 C   0  0  0  0  0  0  0  0  0  0  0  0
   -0.1435   -1.3654    0.0000 O   0  0  0  0  0  0  0  0  0  0  0  0
    0.6411   -1.1104    0.0000 C   0  0  0  0  0  0  0  0  0  0  0  0
    0.6411   -0.2854    0.0000 C   0  0  0  0  0  0  0  0  0  0  0  0
    1.3556    0.1271    0.0000 C   0  0  0  0  0  0  0  0  0  0  0  0
    2.0701   -0.2854    0.0000 C   0  0  0  0  0  0  0  0  0  0  0  0
    2.0701   -1.1104    0.0000 C   0  0  0  0  0  0  0  0  0  0  0  0
    1.3556   -1.5229    0.0000 C   0  0  0  0  0  0  0  0  0  0  0  0
   -1.4534   -0.6979    0.0000 C   0  0  0  0  0  0  0  0  0  0  0  0
   -1.8659    0.0165    0.0000 O   0  0  0  0  0  0  0  0  0  0  0  0
   -1.8659   -1.4124    0.0000 C   0  0  0  0  0  0  0  0  0  0  0  0
   -2.4979   -0.8821    0.0000 O   0  0  0  0  0  0  0  0  0  0  0  0
   -1.0907   -1.6946    0.0000 C   0  0  0  0  0  0  0  0  0  0  0  0
   -0.9474   -2.5070    0.0000 C   0  0  0  0  0  0  0  0  0  0  0  0
   -1.5794   -3.0373    0.0000 C   0  0  0  0  0  0  0  0  0  0  0  0
   -2.3547   -2.7552    0.0000 O   0  0  0  0  0  0  0  0  0  0  0  0
   -2.4979   -1.9427    0.0000 C   0  0  0  0  0  0  0  0  0  0  0  0
   -3.2732   -1.6605    0.0000 O   0  0  0  0  0  0  0  0  0  0  0  0
  1  2  1  0  0  0  0
  2  3  2  0  0  0  0
  3  4  1  0  0  0  0
  4  5  1  0  0  0  0
  5  6  2  0  0  0  0
  2  6  1  0  0  0  0
  6  7  1  0  0  0  0
  7  8  2  0  0  0  0
  8  9  1  0  0  0  0
  9 10  2  0  0  0  0
  5 10  1  0  0  0  0
  3 11  1  0  0  0  0
 11 12  2  0  0  0  0
 11 13  1  0  0  0  0
 13 14  1  0  0  0  0
 13 15  1  0  0  0  0
 15 16  1  0  0  0  0
 16 17  1  0  0  0  0
 17 18  1  0  0  0  0
 18 19  1  0  0  0  0
 13 19  1  0  0  0  0
 19 20  2  0  0  0  0
M  END
> <ID>
CPD_3295

$$$$
CPD_3300
  Mrv1822 09091914012D          

 20 22  0  0  1  0            999 V2000
   -3.5612   -1.3274    0.0000 O   0  0  0  0  0  0  0  0  0  0  0  0
   -4.3027   -1.6891    0.0000 C   0  0  0  0  0  0  0  0  0  0  0  0
   -4.8758   -2.2826    0.0000 C   0  0  0  0  0  0  0  0  0  0  0  0
   -5.6763   -2.0830    0.0000 C   0  0  0  0  0  0  0  0  0  0  0  0
   -5.9037   -1.2899    0.0000 C   0  0  0  0  0  0  0  0  0  0  0  0
   -5.3306   -0.6965    0.0000 O   0  0  0  0  0  0  0  0  0  0  0  0
   -4.5301   -0.8961    0.0000 C   0  0  0  0  0  0  0  0  0  0  0  0
   -3.9570   -0.3026    0.0000 O   0  0  0  0  0  0  0  0  0  0  0  0
   -3.8178   -2.3565    0.0000 C   0  0  0  0  0  0  0  0  0  0  0  0
   -4.1534   -3.1102    0.0000 O   0  0  0  0  0  0  0  0  0  0  0  0
   -2.9973   -2.2703    0.0000 N   0  0  0  0  0  0  0  0  0  0  0  0
   -2.5848   -1.5558    0.0000 C   0  0  0  0  0  0  0  0  0  0  0  0
   -1.7778   -1.7274    0.0000 C   0  0  0  0  0  0  0  0  0  0  0  0
   -1.6916   -2.5478    0.0000 C   0  0  1  0  0  0  0  0  0  0  0  0
   -2.4453   -2.8834    0.0000 C   0  0  0  0  0  0  0  0  0  0  0  0
   -0.9771   -2.9603    0.0000 C   0  0  0  0  0  0  0  0  0  0  0  0
   -0.2627   -2.5478    0.0000 O   0  0  0  0  0  0  0  0  0  0  0  0
   -0.9771   -3.7853    0.0000 C   0  0  0  0  0  0  0  0  0  0  0  0
   -0.5646   -4.4998    0.0000 C   0  0  0  0  0  0  0  0  0  0  0  0
   -1.3896   -4.4998    0.0000 C   0  0  0  0  0  0  0  0  0  0  0  0
  1  2  1  0  0  0  0
  2  3  1  0  0  0  0
  3  4  1  0  0  0  0
  4  5  1  0  0  0  0
  5  6  1  0  0  0  0
  6  7  1  0  0  0  0
  2  7  1  0  0  0  0
  7  8  2  0  0  0  0
  2  9  1  0  0  0  0
  9 10  2  0  0  0  0
  9 11  1  0  0  0  0
 11 12  1  0  0  0  0
 12 13  1  0  0  0  0
 14 13  1  0  0  0  0
 14 15  1  0  0  0  0
 11 15  1  0  0  0  0
 14 16  1  6  0  0  0
 16 17  2  0  0  0  0
 16 18  1  0  0  0  0
 18 19  1  0  0  0  0
 19 20  1  0  0  0  0
 18 20  1  0  0  0  0
M  END
> <ID>
CPD_3300

$$$$
CPD_3305
  Mrv1822 09091914012D          

 16 17  0  0  0  0            999 V2000
    1.7030   -1.3152    0.0000 O   0  0  0  0  0  0  0  0  0  0  0  0
    1.4208   -0.5399    0.0000 C   0  0  0  0  0  0  0  0  0  0  0  0
    0.8905    0.0921    0.0000 C   0  0  0  0  0  0  0  0  0  0  0  0
    1.1727    0.8673    0.0000 C   0  0  0  0  0  0  0  0  0  0  0  0
    1.9852    1.0106    0.0000 C   0  0  0  0  0  0  0  0  0  0  0  0
    2.5155    0.3786    0.0000 O   0  0  0  0  0  0  0  0  0  0  0  0
    2.2333   -0.3967    0.0000 C   0  0  0  0  0  0  0  0  0  0  0  0
    2.7636   -1.0286    0.0000 O   0  0  0  0  0  0  0  0  0  0  0  0
    0.7064   -0.9524    0.0000 C   0  0  0  0  0  0  0  0  0  0  0  0
   -0.0081   -0.5399    0.0000 O   0  0  0  0  0  0  0  0  0  0  0  0
    0.7064   -1.7774    0.0000 C   0  0  0  0  0  0  0  0  0  0  0  0
    1.3738   -2.2623    0.0000 N   0  0  0  0  0  0  0  0  0  0  0  0
    1.1189   -3.0470    0.0000 N   0  0  0  0  0  0  0  0  0  0  0  0
    0.2939   -3.0470    0.0000 C   0  0  0  0  0  0  0  0  0  0  0  0
   -0.1911   -3.7144    0.0000 Br  0  0  0  0  0  0  0  0  0  0  0  0
    0.0389   -2.2623    0.0000 C   0  0  0  0  0  0  0  0  0  0  0  0
  1  2  1  0  0  0  0
  2  3  1  0  0  0  0
  3  4  1  0  0  0  0
  4  5  1  0  0  0  0
  5  6  1  0  0  0  0
  6  7  1  0  0  0  0
  2  7  1  0  0  0  0
  7  8  2  0  0  0  0
  2  9  1  0  0  0  0
  9 10  2  0  0  0  0
  9 11  1  0  0  0  0
 11 12  2  0  0  0  0
 12 13  1  0  0  0  0
 13 14  1  0  0  0  0
 14 15  1  0  0  0  0
 14 16  2  0  0  0  0
 11 16  1  0  0  0  0
M  END
> <ID>
CPD_3305

$$$$
CPD_3310
  Mrv1822 09091914012D          

 36 38  0  0  1  0            999 V2000
    1.2130   -3.5029    0.0000 C   0  0  0  0  0  0  0  0  0  0  0  0
    1.7530   -4.1266    0.0000 O   0  0  0  0  0  0  0  0  0  0  0  0
    2.5632   -3.9707    0.0000 C   0  0  0  0  0  0  0  0  0  0  0  0
    2.8332   -3.1911    0.0000 O   0  0  0  0  0  0  0  0  0  0  0  0
    3.1033   -4.5943    0.0000 C   0  0  0  0  0  0  0  0  0  0  0  0
    3.9134   -4.4384    0.0000 C   0  0  0  0  0  0  0  0  0  0  0  0
    4.1834   -3.6588    0.0000 C   0  0  0  0  0  0  0  0  0  0  0  0
    4.9936   -3.5029    0.0000 N   0  0  0  0  0  0  0  0  0  0  0  0
    5.2636   -2.7234    0.0000 C   0  0  0  0  0  0  0  0  0  0  0  0
    4.7235   -2.0997    0.0000 C   0  0  0  0  0  0  0  0  0  0  0  0
    4.9936   -1.3202    0.0000 C   0  0  0  0  0  0  0  0  0  0  0  0
    5.8037   -1.1643    0.0000 C   0  0  0  0  0  0  0  0  0  0  0  0
    6.0738   -0.3847    0.0000 F   0  0  0  0  0  0  0  0  0  0  0  0
    6.3438   -1.7879    0.0000 C   0  0  0  0  0  0  0  0  0  0  0  0
    6.0738   -2.5675    0.0000 C   0  0  0  0  0  0  0  0  0  0  0  0
    5.5337   -4.1266    0.0000 S   0  0  0  0  0  0  0  0  0  0  0  0
    6.1573   -3.5865    0.0000 C   0  0  0  0  0  0  0  0  0  0  0  0
    6.0738   -4.7502    0.0000 O   0  0  0  0  0  0  0  0  0  0  0  0
    4.9100   -4.6667    0.0000 O   0  0  0  0  0  0  0  0  0  0  0  0
    2.8332   -5.3739    0.0000 C   0  0  0  0  0  0  0  0  0  0  0  0
    2.0231   -5.5298    0.0000 O   0  0  0  0  0  0  0  0  0  0  0  0
    3.3733   -5.9975    0.0000 N   0  0  0  0  0  0  0  0  0  0  0  0
    3.1862   -6.8010    0.0000 C   0  0  1  0  0  0  0  0  0  0  0  0
    2.4262   -7.1220    0.0000 C   0  0  0  0  0  0  0  0  0  0  0  0
    2.3242   -7.9406    0.0000 C   0  0  0  0  0  0  0  0  0  0  0  0
    2.9821   -8.4383    0.0000 C   0  0  0  0  0  0  0  0  0  0  0  0
    2.8800   -9.2570    0.0000 C   0  0  0  0  0  0  0  0  0  0  0  0
    2.1200   -9.5779    0.0000 C   0  0  0  0  0  0  0  0  0  0  0  0
    1.4621   -9.0802    0.0000 C   0  0  0  0  0  0  0  0  0  0  0  0
    1.5641   -8.2616    0.0000 C   0  0  0  0  0  0  0  0  0  0  0  0
    0.9062   -7.7638    0.0000 F   0  0  0  0  0  0  0  0  0  0  0  0
    3.8926   -7.2272    0.0000 C   0  0  0  0  0  0  0  0  0  0  0  0
    3.9630   -8.0492    0.0000 O   0  0  0  0  0  0  0  0  0  0  0  0
    4.5162   -6.6871    0.0000 C   0  0  0  0  0  0  0  0  0  0  0  0
    4.1953   -5.9271    0.0000 C   0  0  0  0  0  0  0  0  0  0  0  0
    4.6215   -5.2208    0.0000 O   0  0  0  0  0  0  0  0  0  0  0  0
  1  2  1  0  0  0  0
  2  3  1  0  0  0  0
  3  4  2  0  0  0  0
  3  5  1  0  0  0  0
  5  6  1  0  0  0  0
  6  7  1  0  0  0  0
  7  8  1  0  0  0  0
  8  9  1  0  0  0  0
  9 10  2  0  0  0  0
 10 11  1  0  0  0  0
 11 12  2  0  0  0  0
 12 13  1  0  0  0  0
 12 14  1  0  0  0  0
 14 15  2  0  0  0  0
  9 15  1  0  0  0  0
  8 16  1  0  0  0  0
 16 17  1  0  0  0  0
 16 18  2  0  0  0  0
 16 19  2  0  0  0  0
  5 20  1  0  0  0  0
 20 21  2  0  0  0  0
 20 22  1  0  0  0  0
 23 22  1  0  0  0  0
 23 24  1  6  0  0  0
 24 25  1  0  0  0  0
 25 26  2  0  0  0  0
 26 27  1  0  0  0  0
 27 28  2  0  0  0  0
 28 29  1  0  0  0  0
 29 30  2  0  0  0  0
 25 30  1  0  0  0  0
 30 31  1  0  0  0  0
 23 32  1  0  0  0  0
 32 33  1  0  0  0  0
 32 34  2  0  0  0  0
 34 35  1  0  0  0  0
 22 35  1  0  0  0  0
 35 36  2  0  0  0  0
M  END
> <ID>
CPD_3310

$$$$
CPD_3315
  Mrv1822 09091914012D          

 31 33  0  0  0  0            999 V2000
    1.6033    0.2111    0.0000 C   0  0  0  0  0  0  0  0  0  0  0  0
    2.1434   -0.4125    0.0000 O   0  0  0  0  0  0  0  0  0  0  0  0
    2.9535   -0.2566    0.0000 C   0  0  0  0  0  0  0  0  0  0  0  0
    3.2236    0.5230    0.0000 O   0  0  0  0  0  0  0  0  0  0  0  0
    3.4936   -0.8802    0.0000 C   0  0  0  0  0  0  0  0  0  0  0  0
    4.3038   -0.7243    0.0000 C   0  0  0  0  0  0  0  0  0  0  0  0
    4.5738    0.0552    0.0000 C   0  0  0  0  0  0  0  0  0  0  0  0
    5.3839    0.2111    0.0000 N   0  0  0  0  0  0  0  0  0  0  0  0
    5.6540    0.9907    0.0000 C   0  0  0  0  0  0  0  0  0  0  0  0
    5.1139    1.6143    0.0000 C   0  0  0  0  0  0  0  0  0  0  0  0
    5.3839    2.3939    0.0000 C   0  0  0  0  0  0  0  0  0  0  0  0
    6.1941    2.5498    0.0000 C   0  0  0  0  0  0  0  0  0  0  0  0
    6.4641    3.3293    0.0000 F   0  0  0  0  0  0  0  0  0  0  0  0
    6.7342    1.9262    0.0000 C   0  0  0  0  0  0  0  0  0  0  0  0
    6.4641    1.1466    0.0000 C   0  0  0  0  0  0  0  0  0  0  0  0
    5.9240   -0.4125    0.0000 S   0  0  0  0  0  0  0  0  0  0  0  0
    5.3004   -0.9526    0.0000 C   0  0  0  0  0  0  0  0  0  0  0  0
    6.5477    0.1276    0.0000 O   0  0  0  0  0  0  0  0  0  0  0  0
    6.4641   -1.0361    0.0000 O   0  0  0  0  0  0  0  0  0  0  0  0
    3.2236   -1.6598    0.0000 C   0  0  0  0  0  0  0  0  0  0  0  0
    3.7637   -2.2834    0.0000 O   0  0  0  0  0  0  0  0  0  0  0  0
    2.4135   -1.8157    0.0000 C   0  0  0  0  0  0  0  0  0  0  0  0
    2.1434   -2.5952    0.0000 C   0  0  0  0  0  0  0  0  0  0  0  0
    1.3333   -2.7512    0.0000 C   0  0  0  0  0  0  0  0  0  0  0  0
    0.9071   -3.4575    0.0000 N   0  0  0  0  0  0  0  0  0  0  0  0
    0.1035   -3.2704    0.0000 C   0  0  0  0  0  0  0  0  0  0  0  0
    0.0332   -2.4485    0.0000 C   0  0  0  0  0  0  0  0  0  0  0  0
   -0.6732   -2.0222    0.0000 Br  0  0  0  0  0  0  0  0  0  0  0  0
    0.7932   -2.1275    0.0000 N   0  0  0  0  0  0  0  0  0  0  0  0
    1.0632   -1.3480    0.0000 C   0  0  0  0  0  0  0  0  0  0  0  0
    1.8734   -1.1921    0.0000 C   0  0  0  0  0  0  0  0  0  0  0  0
  1  2  1  0  0  0  0
  2  3  1  0  0  0  0
  3  4  2  0  0  0  0
  3  5  1  0  0  0  0
  5  6  1  0  0  0  0
  6  7  1  0  0  0  0
  7  8  1  0  0  0  0
  8  9  1  0  0  0  0
  9 10  2  0  0  0  0
 10 11  1  0  0  0  0
 11 12  2  0  0  0  0
 12 13  1  0  0  0  0
 12 14  1  0  0  0  0
 14 15  2  0  0  0  0
  9 15  1  0  0  0  0
  8 16  1  0  0  0  0
 16 17  1  0  0  0  0
 16 18  2  0  0  0  0
 16 19  2  0  0  0  0
  5 20  1  0  0  0  0
 20 21  2  0  0  0  0
 20 22  1  0  0  0  0
 22 23  2  0  0  0  0
 23 24  1  0  0  0  0
 24 25  2  0  0  0  0
 25 26  1  0  0  0  0
 26 27  2  0  0  0  0
 27 28  1  0  0  0  0
 27 29  1  0  0  0  0
 24 29  1  0  0  0  0
 29 30  1  0  0  0  0
 30 31  2  0  0  0  0
 22 31  1  0  0  0  0
M  END
> <ID>
CPD_3315

$$$$
CPD_3320
  Mrv1822 09091914012D          

 35 36  0  0  0  0            999 V2000
   -2.1434   -2.0625    0.0000 C   0  0  0  0  0  0  0  0  0  0  0  0
   -1.4289   -1.6500    0.0000 O   0  0  0  0  0  0  0  0  0  0  0  0
   -1.4289   -0.8250    0.0000 C   0  0  0  0  0  0  0  0  0  0  0  0
   -2.1434   -0.4125    0.0000 O   0  0  0  0  0  0  0  0  0  0  0  0
   -0.7145   -0.4125    0.0000 C   0  0  0  0  0  0  0  0  0  0  0  0
    0.0000   -0.8250    0.0000 C   0  0  0  0  0  0  0  0  0  0  0  0
    0.0000   -1.6500    0.0000 C   0  0  0  0  0  0  0  0  0  0  0  0
    0.7145   -2.0625    0.0000 N   0  0  0  0  0  0  0  0  0  0  0  0
    0.7145   -2.8875    0.0000 C   0  0  0  0  0  0  0  0  0  0  0  0
    1.4289   -3.3000    0.0000 C   0  0  0  0  0  0  0  0  0  0  0  0
    1.4289   -4.1250    0.0000 C   0  0  0  0  0  0  0  0  0  0  0  0
    0.7145   -4.5375    0.0000 C   0  0  0  0  0  0  0  0  0  0  0  0
    0.7145   -5.3625    0.0000 F   0  0  0  0  0  0  0  0  0  0  0  0
    0.0000   -4.1250    0.0000 C   0  0  0  0  0  0  0  0  0  0  0  0
    0.0000   -3.3000    0.0000 C   0  0  0  0  0  0  0  0  0  0  0  0
    1.4289   -1.6500    0.0000 S   0  0  0  0  0  0  0  0  0  0  0  0
    1.8414   -2.3645    0.0000 C   0  0  0  0  0  0  0  0  0  0  0  0
    1.0164   -0.9355    0.0000 O   0  0  0  0  0  0  0  0  0  0  0  0
    2.1434   -1.2375    0.0000 O   0  0  0  0  0  0  0  0  0  0  0  0
   -0.7145    0.4125    0.0000 C   0  0  0  0  0  0  0  0  0  0  0  0
    0.0000    0.8250    0.0000 O   0  0  0  0  0  0  0  0  0  0  0  0
   -1.4289    0.8250    0.0000 C   0  0  0  0  0  0  0  0  0  0  0  0
   -2.1434    0.4125    0.0000 C   0  0  0  0  0  0  0  0  0  0  0  0
   -2.8579    0.8250    0.0000 C   0  0  0  0  0  0  0  0  0  0  0  0
   -3.5724    0.4125    0.0000 C   0  0  0  0  0  0  0  0  0  0  0  0
   -2.8579    1.6500    0.0000 C   0  0  0  0  0  0  0  0  0  0  0  0
   -2.1434    2.0625    0.0000 N   0  0  0  0  0  0  0  0  0  0  0  0
   -1.4289    1.6500    0.0000 C   0  0  0  0  0  0  0  0  0  0  0  0
   -0.7145    2.0625    0.0000 N   0  0  0  0  0  0  0  0  0  0  0  0
   -0.7145    2.8875    0.0000 C   0  0  0  0  0  0  0  0  0  0  0  0
   -0.0000    3.3000    0.0000 O   0  0  0  0  0  0  0  0  0  0  0  0
   -1.4289    3.3000    0.0000 C   0  0  0  0  0  0  0  0  0  0  0  0
   -2.1434    3.7125    0.0000 C   0  0  0  0  0  0  0  0  0  0  0  0
   -1.0164    4.0145    0.0000 C   0  0  0  0  0  0  0  0  0  0  0  0
   -1.8414    2.5855    0.0000 C   0  0  0  0  0  0  0  0  0  0  0  0
  1  2  1  0  0  0  0
  2  3  1  0  0  0  0
  3  4  2  0  0  0  0
  3  5  1  0  0  0  0
  5  6  1  0  0  0  0
  6  7  1  0  0  0  0
  7  8  1  0  0  0  0
  8  9  1  0  0  0  0
  9 10  2  0  0  0  0
 10 11  1  0  0  0  0
 11 12  2  0  0  0  0
 12 13  1  0  0  0  0
 12 14  1  0  0  0  0
 14 15  2  0  0  0  0
  9 15  1  0  0  0  0
  8 16  1  0  0  0  0
 16 17  1  0  0  0  0
 16 18  2  0  0  0  0
 16 19  2  0  0  0  0
  5 20  1  0  0  0  0
 20 21  2  0  0  0  0
 20 22  1  0  0  0  0
 22 23  2  0  0  0  0
 23 24  1  0  0  0  0
 24 25  1  0  0  0  0
 24 26  2  0  0  0  0
 26 27  1  0  0  0  0
 27 28  2  0  0  0  0
 22 28  1  0  0  0  0
 28 29  1  0  0  0  0
 29 30  1  0  0  0  0
 30 31  2  0  0  0  0
 30 32  1  0  0  0  0
 32 33  1  0  0  0  0
 32 34  1  0  0  0  0
 32 35  1  0  0  0  0
M  END
> <ID>
CPD_3320

$$$$
CPD_3325
  Mrv1822 09091914012D          

 36 38  0  0  0  0            999 V2000
   -1.0547   -6.0360    0.0000 C   0  0  0  0  0  0  0  0  0  0  0  0
   -0.4416   -5.4840    0.0000 O   0  0  0  0  0  0  0  0  0  0  0  0
   -0.6131   -4.6770    0.0000 C   0  0  0  0  0  0  0  0  0  0  0  0
   -1.3977   -4.4221    0.0000 O   0  0  0  0  0  0  0  0  0  0  0  0
    0.0000   -4.1250    0.0000 C   0  0  0  0  0  0  0  0  0  0  0  0
    0.4125   -3.4105    0.0000 C   0  0  0  0  0  0  0  0  0  0  0  0
    0.7145   -4.5375    0.0000 N   0  0  0  0  0  0  0  0  0  0  0  0
    0.7145   -5.3625    0.0000 C   0  0  0  0  0  0  0  0  0  0  0  0
   -0.0000   -5.7750    0.0000 C   0  0  0  0  0  0  0  0  0  0  0  0
    0.0000   -6.6000    0.0000 C   0  0  0  0  0  0  0  0  0  0  0  0
   -0.7145   -7.0125    0.0000 C   0  0  0  0  0  0  0  0  0  0  0  0
    0.7145   -7.0125    0.0000 C   0  0  0  0  0  0  0  0  0  0  0  0
    1.4289   -6.6000    0.0000 C   0  0  0  0  0  0  0  0  0  0  0  0
    1.4289   -5.7750    0.0000 C   0  0  0  0  0  0  0  0  0  0  0  0
    1.4289   -4.1250    0.0000 S   0  0  0  0  0  0  0  0  0  0  0  0
    1.0164   -3.4105    0.0000 C   0  0  0  0  0  0  0  0  0  0  0  0
    2.1434   -3.7125    0.0000 O   0  0  0  0  0  0  0  0  0  0  0  0
    1.8414   -4.8395    0.0000 O   0  0  0  0  0  0  0  0  0  0  0  0
   -0.7145   -3.7125    0.0000 C   0  0  0  0  0  0  0  0  0  0  0  0
   -1.4289   -4.1250    0.0000 O   0  0  0  0  0  0  0  0  0  0  0  0
   -0.7145   -2.8875    0.0000 C   0  0  0  0  0  0  0  0  0  0  0  0
    0.0000   -2.4750    0.0000 C   0  0  0  0  0  0  0  0  0  0  0  0
    0.0000   -1.6500    0.0000 N   0  0  0  0  0  0  0  0  0  0  0  0
    0.7145   -1.2375    0.0000 C   0  0  0  0  0  0  0  0  0  0  0  0
    0.7145   -0.4125    0.0000 C   0  0  0  0  0  0  0  0  0  0  0  0
    0.0000    0.0000    0.0000 C   0  0  0  0  0  0  0  0  0  0  0  0
    0.0000    0.8250    0.0000 C   0  0  0  0  0  0  0  0  0  0  0  0
    0.7145    1.2375    0.0000 C   0  0  0  0  0  0  0  0  0  0  0  0
    1.4289    0.8250    0.0000 C   0  0  0  0  0  0  0  0  0  0  0  0
    1.4289   -0.0000    0.0000 C   0  0  0  0  0  0  0  0  0  0  0  0
   -0.7145   -1.2375    0.0000 C   0  0  0  0  0  0  0  0  0  0  0  0
   -1.4289   -1.6500    0.0000 C   0  0  0  0  0  0  0  0  0  0  0  0
   -2.2414   -1.7933    0.0000 F   0  0  0  0  0  0  0  0  0  0  0  0
   -1.7111   -0.8748    0.0000 F   0  0  0  0  0  0  0  0  0  0  0  0
   -1.4289   -2.4750    0.0000 C   0  0  0  0  0  0  0  0  0  0  0  0
   -2.1434   -2.8875    0.0000 O   0  0  0  0  0  0  0  0  0  0  0  0
  1  2  1  0  0  0  0
  2  3  1  0  0  0  0
  3  4  2  0  0  0  0
  3  5  1  0  0  0  0
  5  6  1  0  0  0  0
  5  7  1  0  0  0  0
  7  8  1  0  0  0  0
  8  9  2  0  0  0  0
  9 10  1  0  0  0  0
 10 11  1  0  0  0  0
 10 12  2  0  0  0  0
 12 13  1  0  0  0  0
 13 14  2  0  0  0  0
  8 14  1  0  0  0  0
  7 15  1  0  0  0  0
 15 16  1  0  0  0  0
 15 17  2  0  0  0  0
 15 18  2  0  0  0  0
  5 19  1  0  0  0  0
 19 20  2  0  0  0  0
 19 21  1  0  0  0  0
 21 22  1  0  0  0  0
 22 23  1  0  0  0  0
 23 24  1  0  0  0  0
 24 25  1  0  0  0  0
 25 26  2  0  0  0  0
 26 27  1  0  0  0  0
 27 28  2  0  0  0  0
 28 29  1  0  0  0  0
 29 30  2  0  0  0  0
 25 30  1  0  0  0  0
 23 31  1  0  0  0  0
 31 32  1  0  0  0  0
 32 33  1  0  0  0  0
 32 34  1  0  0  0  0
 32 35  1  0  0  0  0
 21 35  1  0  0  0  0
 35 36  1  0  0  0  0
M  END
> <ID>
CPD_3325

$$$$
CPD_3330
  Mrv1822 09091914012D          

 21 21  0  0  0  0            999 V2000
    1.0164    4.6184    0.0000 C   0  0  0  0  0  0  0  0  0  0  0  0
    1.4289    3.9039    0.0000 O   0  0  0  0  0  0  0  0  0  0  0  0
    1.0164    3.1895    0.0000 C   0  0  0  0  0  0  0  0  0  0  0  0
    0.1914    3.1895    0.0000 O   0  0  0  0  0  0  0  0  0  0  0  0
    1.4289    2.4750    0.0000 C   0  0  0  0  0  0  0  0  0  0  0  0
    1.8414    1.7605    0.0000 C   0  0  0  0  0  0  0  0  0  0  0  0
    0.7145    2.0625    0.0000 N   0  0  0  0  0  0  0  0  0  0  0  0
    0.7145    1.2375    0.0000 C   0  0  0  0  0  0  0  0  0  0  0  0
    1.4289    0.8250    0.0000 C   0  0  0  0  0  0  0  0  0  0  0  0
    1.4289   -0.0000    0.0000 C   0  0  0  0  0  0  0  0  0  0  0  0
    2.1434   -0.4125    0.0000 C   0  0  0  0  0  0  0  0  0  0  0  0
    0.7145   -0.4125    0.0000 C   0  0  0  0  0  0  0  0  0  0  0  0
    0.0000    0.0000    0.0000 C   0  0  0  0  0  0  0  0  0  0  0  0
    0.0000    0.8250    0.0000 C   0  0  0  0  0  0  0  0  0  0  0  0
    0.0000    2.4750    0.0000 S   0  0  0  0  0  0  0  0  0  0  0  0
   -0.4125    1.7605    0.0000 C   0  0  0  0  0  0  0  0  0  0  0  0
   -0.7145    2.8875    0.0000 O   0  0  0  0  0  0  0  0  0  0  0  0
   -0.0862    3.2955    0.0000 O   0  0  0  0  0  0  0  0  0  0  0  0
    2.1434    2.8875    0.0000 C   0  0  0  0  0  0  0  0  0  0  0  0
    2.1434    3.7125    0.0000 C   0  0  0  0  0  0  0  0  0  0  0  0
    2.8579    2.4750    0.0000 O   0  0  0  0  0  0  0  0  0  0  0  0
  1  2  1  0  0  0  0
  2  3  1  0  0  0  0
  3  4  2  0  0  0  0
  3  5  1  0  0  0  0
  5  6  1  0  0  0  0
  5  7  1  0  0  0  0
  7  8  1  0  0  0  0
  8  9  2  0  0  0  0
  9 10  1  0  0  0  0
 10 11  1  0  0  0  0
 10 12  2  0  0  0  0
 12 13  1  0  0  0  0
 13 14  2  0  0  0  0
  8 14  1  0  0  0  0
  7 15  1  0  0  0  0
 15 16  1  0  0  0  0
 15 17  2  0  0  0  0
 15 18  2  0  0  0  0
  5 19  1  0  0  0  0
 19 20  1  0  0  0  0
 19 21  2  0  0  0  0
M  END
> <ID>
CPD_3330

$$$$
CPD_3335
  Mrv1822 09091914012D          

 24 24  0  0  0  0            999 V2000
    1.0164    4.6184    0.0000 C   0  0  0  0  0  0  0  0  0  0  0  0
    1.4289    3.9039    0.0000 O   0  0  0  0  0  0  0  0  0  0  0  0
    1.0164    3.1895    0.0000 C   0  0  0  0  0  0  0  0  0  0  0  0
    0.1914    3.1895    0.0000 O   0  0  0  0  0  0  0  0  0  0  0  0
    1.4289    2.4750    0.0000 C   0  0  0  0  0  0  0  0  0  0  0  0
    1.8414    1.7605    0.0000 C   0  0  0  0  0  0  0  0  0  0  0  0
    0.7145    2.0625    0.0000 N   0  0  0  0  0  0  0  0  0  0  0  0
    0.7145    1.2375    0.0000 C   0  0  0  0  0  0  0  0  0  0  0  0
    1.4289    0.8250    0.0000 C   0  0  0  0  0  0  0  0  0  0  0  0
    1.4289   -0.0000    0.0000 C   0  0  0  0  0  0  0  0  0  0  0  0
    2.1434   -0.4125    0.0000 C   0  0  0  0  0  0  0  0  0  0  0  0
    0.7145   -0.4125    0.0000 C   0  0  0  0  0  0  0  0  0  0  0  0
    0.0000    0.0000    0.0000 C   0  0  0  0  0  0  0  0  0  0  0  0
    0.0000    0.8250    0.0000 C   0  0  0  0  0  0  0  0  0  0  0  0
    0.0000    2.4750    0.0000 S   0  0  0  0  0  0  0  0  0  0  0  0
   -0.4125    1.7605    0.0000 C   0  0  0  0  0  0  0  0  0  0  0  0
   -0.7145    2.8875    0.0000 O   0  0  0  0  0  0  0  0  0  0  0  0
   -0.0862    3.2955    0.0000 O   0  0  0  0  0  0  0  0  0  0  0  0
    2.1434    2.8875    0.0000 C   0  0  0  0  0  0  0  0  0  0  0  0
    2.1434    3.7125    0.0000 O   0  0  0  0  0  0  0  0  0  0  0  0
    2.8579    2.4750    0.0000 C   0  0  0  0  0  0  0  0  0  0  0  0
    2.4454    1.7605    0.0000 C   0  0  0  0  0  0  0  0  0  0  0  0
    3.2704    3.1895    0.0000 F   0  0  0  0  0  0  0  0  0  0  0  0
    3.5724    2.0625    0.0000 F   0  0  0  0  0  0  0  0  0  0  0  0
  1  2  1  0  0  0  0
  2  3  1  0  0  0  0
  3  4  2  0  0  0  0
  3  5  1  0  0  0  0
  5  6  1  0  0  0  0
  5  7  1  0  0  0  0
  7  8  1  0  0  0  0
  8  9  2  0  0  0  0
  9 10  1  0  0  0  0
 10 11  1  0  0  0  0
 10 12  2  0  0  0  0
 12 13  1  0  0  0  0
 13 14  2  0  0  0  0
  8 14  1  0  0  0  0
  7 15  1  0  0  0  0
 15 16  1  0  0  0  0
 15 17  2  0  0  0  0
 15 18  2  0  0  0  0
  5 19  1  0  0  0  0
 19 20  2  0  0  0  0
 19 21  1  0  0  0  0
 21 22  1  0  0  0  0
 21 23  1  0  0  0  0
 21 24  1  0  0  0  0
M  END
> <ID>
CPD_3335

$$$$
CPD_3340
  Mrv1822 09091914012D          

 23 23  0  0  0  0            999 V2000
    1.0164    4.6184    0.0000 C   0  0  0  0  0  0  0  0  0  0  0  0
    1.4289    3.9039    0.0000 O   0  0  0  0  0  0  0  0  0  0  0  0
    1.0164    3.1895    0.0000 C   0  0  0  0  0  0  0  0  0  0  0  0
    0.1914    3.1895    0.0000 O   0  0  0  0  0  0  0  0  0  0  0  0
    1.4289    2.4750    0.0000 C   0  0  0  0  0  0  0  0  0  0  0  0
    1.8414    1.7605    0.0000 C   0  0  0  0  0  0  0  0  0  0  0  0
    0.7145    2.0625    0.0000 N   0  0  0  0  0  0  0  0  0  0  0  0
    0.7145    1.2375    0.0000 C   0  0  0  0  0  0  0  0  0  0  0  0
    1.4289    0.8250    0.0000 C   0  0  0  0  0  0  0  0  0  0  0  0
    1.4289   -0.0000    0.0000 C   0  0  0  0  0  0  0  0  0  0  0  0
    2.1434   -0.4125    0.0000 Cl  0  0  0  0  0  0  0  0  0  0  0  0
    0.7145   -0.4125    0.0000 C   0  0  0  0  0  0  0  0  0  0  0  0
    0.7145   -1.2375    0.0000 O   0  0  0  0  0  0  0  0  0  0  0  0
   -0.0000   -1.6500    0.0000 C   0  0  0  0  0  0  0  0  0  0  0  0
    0.0000    0.0000    0.0000 C   0  0  0  0  0  0  0  0  0  0  0  0
    0.0000    0.8250    0.0000 C   0  0  0  0  0  0  0  0  0  0  0  0
    0.0000    2.4750    0.0000 S   0  0  0  0  0  0  0  0  0  0  0  0
   -0.7145    2.8875    0.0000 C   0  0  0  0  0  0  0  0  0  0  0  0
   -0.0862    3.2955    0.0000 O   0  0  0  0  0  0  0  0  0  0  0  0
   -0.4125    1.7605    0.0000 O   0  0  0  0  0  0  0  0  0  0  0  0
    2.1434    2.8875    0.0000 C   0  0  0  0  0  0  0  0  0  0  0  0
    2.8579    2.4750    0.0000 C   0  0  0  0  0  0  0  0  0  0  0  0
    2.1434    3.7125    0.0000 O   0  0  0  0  0  0  0  0  0  0  0  0
  1  2  1  0  0  0  0
  2  3  1  0  0  0  0
  3  4  2  0  0  0  0
  3  5  1  0  0  0  0
  5  6  1  0  0  0  0
  5  7  1  0  0  0  0
  7  8  1  0  0  0  0
  8  9  2  0  0  0  0
  9 10  1  0  0  0  0
 10 11  1  0  0  0  0
 10 12  2  0  0  0  0
 12 13  1  0  0  0  0
 13 14  1  0  0  0  0
 12 15  1  0  0  0  0
 15 16  2  0  0  0  0
  8 16  1  0  0  0  0
  7 17  1  0  0  0  0
 17 18  1  0  0  0  0
 17 19  2  0  0  0  0
 17 20  2  0  0  0  0
  5 21  1  0  0  0  0
 21 22  1  0  0  0  0
 21 23  2  0  0  0  0
M  END
> <ID>
CPD_3340

$$$$
CPD_3345
  Mrv1822 09091914012D          

 36 38  0  0  0  0            999 V2000
    2.6368    3.0789    0.0000 C   0  0  0  0  0  0  0  0  0  0  0  0
    3.0493    2.3645    0.0000 O   0  0  0  0  0  0  0  0  0  0  0  0
    3.8743    2.3645    0.0000 C   0  0  0  0  0  0  0  0  0  0  0  0
    4.2868    3.0789    0.0000 O   0  0  0  0  0  0  0  0  0  0  0  0
    4.2868    1.6500    0.0000 C   0  0  0  0  0  0  0  0  0  0  0  0
    4.6993    0.9355    0.0000 C   0  0  0  0  0  0  0  0  0  0  0  0
    3.5724    1.2375    0.0000 N   0  0  0  0  0  0  0  0  0  0  0  0
    3.5724    0.4125    0.0000 C   0  0  0  0  0  0  0  0  0  0  0  0
    2.8579   -0.0000    0.0000 C   0  0  0  0  0  0  0  0  0  0  0  0
    2.8579   -0.8250    0.0000 C   0  0  0  0  0  0  0  0  0  0  0  0
    2.1434   -1.2375    0.0000 Cl  0  0  0  0  0  0  0  0  0  0  0  0
    3.5724   -1.2375    0.0000 C   0  0  0  0  0  0  0  0  0  0  0  0
    3.5724   -2.0625    0.0000 O   0  0  0  0  0  0  0  0  0  0  0  0
    2.8579   -2.4750    0.0000 C   0  0  0  0  0  0  0  0  0  0  0  0
    4.2868   -0.8250    0.0000 C   0  0  0  0  0  0  0  0  0  0  0  0
    4.2868   -0.0000    0.0000 C   0  0  0  0  0  0  0  0  0  0  0  0
    2.8579    1.6500    0.0000 S   0  0  0  0  0  0  0  0  0  0  0  0
    2.4454    0.9355    0.0000 C   0  0  0  0  0  0  0  0  0  0  0  0
    2.1434    2.0625    0.0000 O   0  0  0  0  0  0  0  0  0  0  0  0
    2.7716    2.4705    0.0000 O   0  0  0  0  0  0  0  0  0  0  0  0
    5.0013    2.0625    0.0000 C   0  0  0  0  0  0  0  0  0  0  0  0
    5.0013    2.8875    0.0000 O   0  0  0  0  0  0  0  0  0  0  0  0
    5.7158    1.6500    0.0000 C   0  0  0  0  0  0  0  0  0  0  0  0
    5.7158    0.8250    0.0000 N   0  0  0  0  0  0  0  0  0  0  0  0
    6.4302    0.4125    0.0000 C   0  0  0  0  0  0  0  0  0  0  0  0
    7.1447    0.8250    0.0000 C   0  0  0  0  0  0  0  0  0  0  0  0
    7.1447    1.6500    0.0000 C   0  0  0  0  0  0  0  0  0  0  0  0
    6.4302    2.0625    0.0000 C   0  0  0  0  0  0  0  0  0  0  0  0
    6.4302    2.8875    0.0000 C   0  0  0  0  0  0  0  0  0  0  0  0
    6.4302    3.7125    0.0000 N   0  0  0  0  0  0  0  0  0  0  0  0
    6.4302   -0.4125    0.0000 C   0  0  0  0  0  0  0  0  0  0  0  0
    7.1447   -0.8250    0.0000 C   0  0  0  0  0  0  0  0  0  0  0  0
    7.1447   -1.6500    0.0000 C   0  0  0  0  0  0  0  0  0  0  0  0
    6.4302   -2.0625    0.0000 C   0  0  0  0  0  0  0  0  0  0  0  0
    5.7158   -1.6500    0.0000 C   0  0  0  0  0  0  0  0  0  0  0  0
    5.7158   -0.8250    0.0000 C   0  0  0  0  0  0  0  0  0  0  0  0
  1  2  1  0  0  0  0
  2  3  1  0  0  0  0
  3  4  2  0  0  0  0
  3  5  1  0  0  0  0
  5  6  1  0  0  0  0
  5  7  1  0  0  0  0
  7  8  1  0  0  0  0
  8  9  2  0  0  0  0
  9 10  1  0  0  0  0
 10 11  1  0  0  0  0
 10 12  2  0  0  0  0
 12 13  1  0  0  0  0
 13 14  1  0  0  0  0
 12 15  1  0  0  0  0
 15 16  2  0  0  0  0
  8 16  1  0  0  0  0
  7 17  1  0  0  0  0
 17 18  1  0  0  0  0
 17 19  2  0  0  0  0
 17 20  2  0  0  0  0
  5 21  1  0  0  0  0
 21 22  2  0  0  0  0
 21 23  1  0  0  0  0
 23 24  2  0  0  0  0
 24 25  1  0  0  0  0
 25 26  2  0  0  0  0
 26 27  1  0  0  0  0
 27 28  2  0  0  0  0
 23 28  1  0  0  0  0
 28 29  1  0  0  0  0
 29 30  3  0  0  0  0
 25 31  1  0  0  0  0
 31 32  2  0  0  0  0
 32 33  1  0  0  0  0
 33 34  2  0  0  0  0
 34 35  1  0  0  0  0
 35 36  2  0  0  0  0
 31 36  1  0  0  0  0
M  END
> <ID>
CPD_3345

$$$$
CPD_3350
  Mrv1822 09091914012D          

 37 38  0  0  0  0            999 V2000
    2.1434    5.3625    0.0000 C   0  0  0  0  0  0  0  0  0  0  0  0
    2.1434    4.5375    0.0000 O   0  0  0  0  0  0  0  0  0  0  0  0
    2.8579    4.1250    0.0000 C   0  0  0  0  0  0  0  0  0  0  0  0
    2.8579    3.3000    0.0000 O   0  0  0  0  0  0  0  0  0  0  0  0
    3.5724    4.5375    0.0000 N   0  0  0  0  0  0  0  0  0  0  0  0
    4.2868    4.1250    0.0000 C   0  0  0  0  0  0  0  0  0  0  0  0
    4.2868    3.3000    0.0000 C   0  0  0  0  0  0  0  0  0  0  0  0
    3.5724    2.8875    0.0000 C   0  0  0  0  0  0  0  0  0  0  0  0
    3.5724    2.0625    0.0000 C   0  0  0  0  0  0  0  0  0  0  0  0
    4.2868    1.6500    0.0000 C   0  0  0  0  0  0  0  0  0  0  0  0
    4.2868    0.8250    0.0000 C   0  0  0  0  0  0  0  0  0  0  0  0
    3.5724    0.4125    0.0000 C   0  0  0  0  0  0  0  0  0  0  0  0
    2.8579    0.8250    0.0000 C   0  0  0  0  0  0  0  0  0  0  0  0
    2.8579    1.6500    0.0000 C   0  0  0  0  0  0  0  0  0  0  0  0
    5.0013    4.5375    0.0000 C   0  0  0  0  0  0  0  0  0  0  0  0
    5.0013    5.3625    0.0000 O   0  0  0  0  0  0  0  0  0  0  0  0
    5.7158    4.1250    0.0000 C   0  0  0  0  0  0  0  0  0  0  0  0
    5.3033    3.4105    0.0000 C   0  0  0  0  0  0  0  0  0  0  0  0
    6.4302    3.7125    0.0000 N   0  0  0  0  0  0  0  0  0  0  0  0
    6.4302    2.8875    0.0000 C   0  0  0  0  0  0  0  0  0  0  0  0
    7.1447    2.4750    0.0000 C   0  0  0  0  0  0  0  0  0  0  0  0
    7.1447    1.6500    0.0000 C   0  0  0  0  0  0  0  0  0  0  0  0
    7.8592    1.2375    0.0000 O   0  0  0  0  0  0  0  0  0  0  0  0
    7.8592    0.4125    0.0000 C   0  0  0  0  0  0  0  0  0  0  0  0
    6.4302    1.2375    0.0000 C   0  0  0  0  0  0  0  0  0  0  0  0
    5.7158    1.6500    0.0000 C   0  0  0  0  0  0  0  0  0  0  0  0
    5.7158    2.4750    0.0000 C   0  0  0  0  0  0  0  0  0  0  0  0
    5.0013    2.8875    0.0000 O   0  0  0  0  0  0  0  0  0  0  0  0
    4.2868    2.4750    0.0000 C   0  0  0  0  0  0  0  0  0  0  0  0
    7.1447    4.1250    0.0000 S   0  0  0  0  0  0  0  0  0  0  0  0
    7.8592    4.5375    0.0000 C   0  0  0  0  0  0  0  0  0  0  0  0
    7.5572    3.4105    0.0000 O   0  0  0  0  0  0  0  0  0  0  0  0
    6.7322    4.8395    0.0000 O   0  0  0  0  0  0  0  0  0  0  0  0
    6.1283    4.8395    0.0000 C   0  0  0  0  0  0  0  0  0  0  0  0
    6.9129    5.0944    0.0000 O   0  0  0  0  0  0  0  0  0  0  0  0
    5.7158    5.5539    0.0000 O   0  0  0  0  0  0  0  0  0  0  0  0
    6.1283    6.2684    0.0000 C   0  0  0  0  0  0  0  0  0  0  0  0
  1  2  1  0  0  0  0
  2  3  1  0  0  0  0
  3  4  2  0  0  0  0
  3  5  1  0  0  0  0
  5  6  1  0  0  0  0
  6  7  1  0  0  0  0
  7  8  1  0  0  0  0
  8  9  1  0  0  0  0
  9 10  2  0  0  0  0
 10 11  1  0  0  0  0
 11 12  2  0  0  0  0
 12 13  1  0  0  0  0
 13 14  2  0  0  0  0
  9 14  1  0  0  0  0
  6 15  1  0  0  0  0
 15 16  2  0  0  0  0
 15 17  1  0  0  0  0
 17 18  1  0  0  0  0
 17 19  1  0  0  0  0
 19 20  1  0  0  0  0
 20 21  2  0  0  0  0
 21 22  1  0  0  0  0
 22 23  1  0  0  0  0
 23 24  1  0  0  0  0
 22 25  2  0  0  0  0
 25 26  1  0  0  0  0
 26 27  2  0  0  0  0
 20 27  1  0  0  0  0
 27 28  1  0  0  0  0
 28 29  1  0  0  0  0
 19 30  1  0  0  0  0
 30 31  1  0  0  0  0
 30 32  2  0  0  0  0
 30 33  2  0  0  0  0
 17 34  1  0  0  0  0
 34 35  2  0  0  0  0
 34 36  1  0  0  0  0
 36 37  1  0  0  0  0
M  END
> <ID>
CPD_3350

$$$$
CPD_3355
  Mrv1822 09091914012D          

 24 24  0  0  0  0            999 V2000
    1.7309   -2.1730    0.0000 C   0  0  0  0  0  0  0  0  0  0  0  0
    2.1434   -2.8875    0.0000 O   0  0  0  0  0  0  0  0  0  0  0  0
    2.9684   -2.8875    0.0000 C   0  0  0  0  0  0  0  0  0  0  0  0
    3.3809   -2.1730    0.0000 O   0  0  0  0  0  0  0  0  0  0  0  0
    3.3809   -3.6020    0.0000 C   0  0  0  0  0  0  0  0  0  0  0  0
    4.2059   -3.6020    0.0000 N   0  0  0  0  0  0  0  0  0  0  0  0
    4.6184   -4.3164    0.0000 C   0  0  0  0  0  0  0  0  0  0  0  0
    5.4434   -4.3164    0.0000 C   0  0  0  0  0  0  0  0  0  0  0  0
    5.8559   -5.0309    0.0000 C   0  0  0  0  0  0  0  0  0  0  0  0
    5.4434   -5.7454    0.0000 C   0  0  0  0  0  0  0  0  0  0  0  0
    5.8559   -6.4599    0.0000 Cl  0  0  0  0  0  0  0  0  0  0  0  0
    4.6184   -5.7454    0.0000 C   0  0  0  0  0  0  0  0  0  0  0  0
    4.2059   -5.0309    0.0000 C   0  0  0  0  0  0  0  0  0  0  0  0
    4.2059   -6.4599    0.0000 C   0  0  0  0  0  0  0  0  0  0  0  0
    3.7934   -7.1743    0.0000 F   0  0  0  0  0  0  0  0  0  0  0  0
    3.4914   -6.0474    0.0000 F   0  0  0  0  0  0  0  0  0  0  0  0
    4.9204   -6.8724    0.0000 F   0  0  0  0  0  0  0  0  0  0  0  0
    4.6184   -2.8875    0.0000 S   0  0  0  0  0  0  0  0  0  0  0  0
    5.3329   -3.3000    0.0000 C   0  0  0  0  0  0  0  0  0  0  0  0
    3.9039   -2.4750    0.0000 O   0  0  0  0  0  0  0  0  0  0  0  0
    5.0309   -2.1730    0.0000 O   0  0  0  0  0  0  0  0  0  0  0  0
    2.9684   -4.3164    0.0000 C   0  0  0  0  0  0  0  0  0  0  0  0
    3.3809   -5.0309    0.0000 C   0  0  0  0  0  0  0  0  0  0  0  0
    2.1434   -4.3164    0.0000 O   0  0  0  0  0  0  0  0  0  0  0  0
  1  2  1  0  0  0  0
  2  3  1  0  0  0  0
  3  4  2  0  0  0  0
  3  5  1  0  0  0  0
  5  6  1  0  0  0  0
  6  7  1  0  0  0  0
  7  8  2  0  0  0  0
  8  9  1  0  0  0  0
  9 10  2  0  0  0  0
 10 11  1  0  0  0  0
 10 12  1  0  0  0  0
 12 13  2  0  0  0  0
  7 13  1  0  0  0  0
 12 14  1  0  0  0  0
 14 15  1  0  0  0  0
 14 16  1  0  0  0  0
 14 17  1  0  0  0  0
  6 18  1  0  0  0  0
 18 19  1  0  0  0  0
 18 20  2  0  0  0  0
 18 21  2  0  0  0  0
  5 22  1  0  0  0  0
 22 23  1  0  0  0  0
 22 24  2  0  0  0  0
M  END
> <ID>
CPD_3355

$$$$
CPD_3360
  Mrv1822 09091914012D          

 34 36  0  0  0  0            999 V2000
   -0.7047   -4.7681    0.0000 C   0  0  0  0  0  0  0  0  0  0  0  0
    0.1203   -4.7681    0.0000 O   0  0  0  0  0  0  0  0  0  0  0  0
    0.5328   -4.0536    0.0000 C   0  0  0  0  0  0  0  0  0  0  0  0
    0.1203   -3.3391    0.0000 O   0  0  0  0  0  0  0  0  0  0  0  0
    1.3578   -4.0536    0.0000 C   0  0  0  0  0  0  0  0  0  0  0  0
    1.7703   -4.7681    0.0000 N   0  0  0  0  0  0  0  0  0  0  0  0
    1.3578   -5.4825    0.0000 C   0  0  0  0  0  0  0  0  0  0  0  0
    1.7703   -6.1970    0.0000 C   0  0  0  0  0  0  0  0  0  0  0  0
    1.3578   -6.9115    0.0000 C   0  0  0  0  0  0  0  0  0  0  0  0
    0.5328   -6.9115    0.0000 C   0  0  0  0  0  0  0  0  0  0  0  0
    0.1203   -7.6260    0.0000 Cl  0  0  0  0  0  0  0  0  0  0  0  0
    0.1203   -6.1970    0.0000 C   0  0  0  0  0  0  0  0  0  0  0  0
    0.5328   -5.4825    0.0000 C   0  0  0  0  0  0  0  0  0  0  0  0
   -0.7047   -6.1970    0.0000 C   0  0  0  0  0  0  0  0  0  0  0  0
   -1.5297   -6.1970    0.0000 F   0  0  0  0  0  0  0  0  0  0  0  0
   -0.7047   -5.3720    0.0000 F   0  0  0  0  0  0  0  0  0  0  0  0
   -0.7047   -7.0220    0.0000 F   0  0  0  0  0  0  0  0  0  0  0  0
    2.5953   -4.7681    0.0000 S   0  0  0  0  0  0  0  0  0  0  0  0
    2.5953   -5.5931    0.0000 C   0  0  0  0  0  0  0  0  0  0  0  0
    2.5953   -3.9431    0.0000 O   0  0  0  0  0  0  0  0  0  0  0  0
    3.4203   -4.7681    0.0000 O   0  0  0  0  0  0  0  0  0  0  0  0
    1.7703   -3.3391    0.0000 C   0  0  0  0  0  0  0  0  0  0  0  0
    2.5953   -3.3391    0.0000 O   0  0  0  0  0  0  0  0  0  0  0  0
    1.3578   -2.6247    0.0000 C   0  0  0  0  0  0  0  0  0  0  0  0
    0.5373   -2.5384    0.0000 C   0  0  0  0  0  0  0  0  0  0  0  0
    0.3658   -1.7314    0.0000 N   0  0  0  0  0  0  0  0  0  0  0  0
    1.0803   -1.3189    0.0000 C   0  0  0  0  0  0  0  0  0  0  0  0
    1.6934   -1.8710    0.0000 S   0  0  0  0  0  0  0  0  0  0  0  0
    1.1665   -0.4985    0.0000 C   0  0  0  0  0  0  0  0  0  0  0  0
    0.4991   -0.0135    0.0000 C   0  0  0  0  0  0  0  0  0  0  0  0
    0.5853    0.8069    0.0000 C   0  0  0  0  0  0  0  0  0  0  0  0
    1.3390    1.1425    0.0000 C   0  0  0  0  0  0  0  0  0  0  0  0
    2.0064    0.6576    0.0000 C   0  0  0  0  0  0  0  0  0  0  0  0
    1.9202   -0.1629    0.0000 C   0  0  0  0  0  0  0  0  0  0  0  0
  1  2  1  0  0  0  0
  2  3  1  0  0  0  0
  3  4  2  0  0  0  0
  3  5  1  0  0  0  0
  5  6  1  0  0  0  0
  6  7  1  0  0  0  0
  7  8  2  0  0  0  0
  8  9  1  0  0  0  0
  9 10  2  0  0  0  0
 10 11  1  0  0  0  0
 10 12  1  0  0  0  0
 12 13  2  0  0  0  0
  7 13  1  0  0  0  0
 12 14  1  0  0  0  0
 14 15  1  0  0  0  0
 14 16  1  0  0  0  0
 14 17  1  0  0  0  0
  6 18  1  0  0  0  0
 18 19  1  0  0  0  0
 18 20  2  0  0  0  0
 18 21  2  0  0  0  0
  5 22  1  0  0  0  0
 22 23  2  0  0  0  0
 22 24  1  0  0  0  0
 24 25  2  0  0  0  0
 25 26  1  0  0  0  0
 26 27  2  0  0  0  0
 27 28  1  0  0  0  0
 24 28  1  0  0  0  0
 27 29  1  0  0  0  0
 29 30  2  0  0  0  0
 30 31  1  0  0  0  0
 31 32  2  0  0  0  0
 32 33  1  0  0  0  0
 33 34  2  0  0  0  0
 29 34  1  0  0  0  0
M  END
> <ID>
CPD_3360

$$$$
CPD_3365
  Mrv1822 09091914012D          

 31 32  0  0  1  0            999 V2000
    2.8579    0.8250    0.0000 C   0  0  0  0  0  0  0  0  0  0  0  0
    2.8579   -0.0000    0.0000 O   0  0  0  0  0  0  0  0  0  0  0  0
    2.1434   -0.4125    0.0000 C   0  0  0  0  0  0  0  0  0  0  0  0
    1.4289   -0.0000    0.0000 O   0  0  0  0  0  0  0  0  0  0  0  0
    2.1434   -1.2375    0.0000 C   0  0  0  0  0  0  0  0  0  0  0  0
    1.4289   -1.6500    0.0000 N   0  0  0  0  0  0  0  0  0  0  0  0
    1.4289   -2.4750    0.0000 C   0  0  0  0  0  0  0  0  0  0  0  0
    0.7145   -2.8875    0.0000 C   0  0  0  0  0  0  0  0  0  0  0  0
   -0.0000   -2.4750    0.0000 C   0  0  0  0  0  0  0  0  0  0  0  0
    0.7145   -3.7125    0.0000 C   0  0  0  0  0  0  0  0  0  0  0  0
    1.4289   -4.1250    0.0000 C   0  0  0  0  0  0  0  0  0  0  0  0
    2.1434   -3.7125    0.0000 C   0  0  0  0  0  0  0  0  0  0  0  0
    2.8579   -4.1250    0.0000 C   0  0  0  0  0  0  0  0  0  0  0  0
    2.1434   -2.8875    0.0000 C   0  0  0  0  0  0  0  0  0  0  0  0
    0.7145   -1.2375    0.0000 S   0  0  0  0  0  0  0  0  0  0  0  0
    0.3020   -1.9520    0.0000 O   0  0  0  0  0  0  0  0  0  0  0  0
    1.1270   -0.5230    0.0000 O   0  0  0  0  0  0  0  0  0  0  0  0
    0.0000   -0.8250    0.0000 C   0  0  0  0  0  0  0  0  0  0  0  0
   -0.7145   -1.2375    0.0000 C   0  0  0  0  0  0  0  0  0  0  0  0
   -1.4289   -0.8250    0.0000 C   0  0  0  0  0  0  0  0  0  0  0  0
   -1.4289   -0.0000    0.0000 C   0  0  0  0  0  0  0  0  0  0  0  0
   -2.1434    0.4125    0.0000 C   0  0  0  0  0  0  0  0  0  0  0  0
   -0.7145    0.4125    0.0000 C   0  0  0  0  0  0  0  0  0  0  0  0
    0.0000   -0.0000    0.0000 C   0  0  0  0  0  0  0  0  0  0  0  0
    2.8579   -1.6500    0.0000 C   0  0  0  0  0  0  0  0  0  0  0  0
    2.8579   -2.4750    0.0000 O   0  0  0  0  0  0  0  0  0  0  0  0
    3.5724   -1.2375    0.0000 C   0  0  1  0  0  0  0  0  0  0  0  0
    3.5724   -0.4125    0.0000 N   0  0  0  0  0  0  0  0  0  0  0  0
    4.2868   -1.6500    0.0000 C   0  0  0  0  0  0  0  0  0  0  0  0
    5.0013   -1.2375    0.0000 C   0  0  0  0  0  0  0  0  0  0  0  0
    5.7158   -0.8250    0.0000 N   0  0  0  0  0  0  0  0  0  0  0  0
  1  2  1  0  0  0  0
  2  3  1  0  0  0  0
  3  4  2  0  0  0  0
  3  5  1  0  0  0  0
  5  6  1  0  0  0  0
  6  7  1  0  0  0  0
  7  8  2  0  0  0  0
  8  9  1  0  0  0  0
  8 10  1  0  0  0  0
 10 11  2  0  0  0  0
 11 12  1  0  0  0  0
 12 13  1  0  0  0  0
 12 14  2  0  0  0  0
  7 14  1  0  0  0  0
  6 15  1  0  0  0  0
 15 16  2  0  0  0  0
 15 17  2  0  0  0  0
 15 18  1  0  0  0  0
 18 19  2  0  0  0  0
 19 20  1  0  0  0  0
 20 21  2  0  0  0  0
 21 22  1  0  0  0  0
 21 23  1  0  0  0  0
 23 24  2  0  0  0  0
 18 24  1  0  0  0  0
  5 25  1  0  0  0  0
 25 26  2  0  0  0  0
 27 25  1  0  0  0  0
 27 28  1  1  0  0  0
 27 29  1  0  0  0  0
 29 30  1  0  0  0  0
 30 31  3  0  0  0  0
M  END
> <ID>
CPD_3365

$$$$
CPD_3370
  Mrv1822 09091914012D          

 34 36  0  0  0  0            999 V2000
    4.2868   -1.6500    0.0000 C   0  0  0  0  0  0  0  0  0  0  0  0
    4.2868   -2.4750    0.0000 O   0  0  0  0  0  0  0  0  0  0  0  0
    3.5724   -2.8875    0.0000 C   0  0  0  0  0  0  0  0  0  0  0  0
    2.8579   -2.4750    0.0000 O   0  0  0  0  0  0  0  0  0  0  0  0
    3.5724   -3.7125    0.0000 C   0  0  0  0  0  0  0  0  0  0  0  0
    2.8579   -4.1250    0.0000 N   0  0  0  0  0  0  0  0  0  0  0  0
    2.8579   -4.9500    0.0000 C   0  0  0  0  0  0  0  0  0  0  0  0
    2.1434   -5.3625    0.0000 C   0  0  0  0  0  0  0  0  0  0  0  0
    1.4289   -4.9500    0.0000 C   0  0  0  0  0  0  0  0  0  0  0  0
    2.1434   -6.1875    0.0000 C   0  0  0  0  0  0  0  0  0  0  0  0
    2.8579   -6.6000    0.0000 C   0  0  0  0  0  0  0  0  0  0  0  0
    3.5724   -6.1875    0.0000 C   0  0  0  0  0  0  0  0  0  0  0  0
    4.2868   -6.6000    0.0000 Cl  0  0  0  0  0  0  0  0  0  0  0  0
    3.5724   -5.3625    0.0000 C   0  0  0  0  0  0  0  0  0  0  0  0
    2.1434   -3.7125    0.0000 S   0  0  0  0  0  0  0  0  0  0  0  0
    1.7309   -4.4270    0.0000 O   0  0  0  0  0  0  0  0  0  0  0  0
    2.5559   -2.9980    0.0000 O   0  0  0  0  0  0  0  0  0  0  0  0
    1.4289   -3.3000    0.0000 C   0  0  0  0  0  0  0  0  0  0  0  0
    0.7145   -3.7125    0.0000 C   0  0  0  0  0  0  0  0  0  0  0  0
    0.0000   -3.3000    0.0000 C   0  0  0  0  0  0  0  0  0  0  0  0
    0.0000   -2.4750    0.0000 C   0  0  0  0  0  0  0  0  0  0  0  0
   -0.7145   -2.0625    0.0000 C   0  0  0  0  0  0  0  0  0  0  0  0
    0.7145   -2.0625    0.0000 C   0  0  0  0  0  0  0  0  0  0  0  0
    1.4289   -2.4750    0.0000 C   0  0  0  0  0  0  0  0  0  0  0  0
    4.2868   -4.1250    0.0000 C   0  0  0  0  0  0  0  0  0  0  0  0
    4.2868   -4.9500    0.0000 O   0  0  0  0  0  0  0  0  0  0  0  0
    5.0013   -3.7125    0.0000 C   0  0  0  0  0  0  0  0  0  0  0  0
    5.0013   -2.8875    0.0000 N   0  0  0  0  0  0  0  0  0  0  0  0
    5.7158   -4.1250    0.0000 C   0  0  0  0  0  0  0  0  0  0  0  0
    6.4302   -3.7125    0.0000 C   0  0  0  0  0  0  0  0  0  0  0  0
    7.1447   -4.1250    0.0000 C   0  0  0  0  0  0  0  0  0  0  0  0
    7.1447   -4.9500    0.0000 N   0  0  0  0  0  0  0  0  0  0  0  0
    6.4302   -5.3625    0.0000 C   0  0  0  0  0  0  0  0  0  0  0  0
    5.7158   -4.9500    0.0000 C   0  0  0  0  0  0  0  0  0  0  0  0
  1  2  1  0  0  0  0
  2  3  1  0  0  0  0
  3  4  2  0  0  0  0
  3  5  1  0  0  0  0
  5  6  1  0  0  0  0
  6  7  1  0  0  0  0
  7  8  2  0  0  0  0
  8  9  1  0  0  0  0
  8 10  1  0  0  0  0
 10 11  2  0  0  0  0
 11 12  1  0  0  0  0
 12 13  1  0  0  0  0
 12 14  2  0  0  0  0
  7 14  1  0  0  0  0
  6 15  1  0  0  0  0
 15 16  2  0  0  0  0
 15 17  2  0  0  0  0
 15 18  1  0  0  0  0
 18 19  2  0  0  0  0
 19 20  1  0  0  0  0
 20 21  2  0  0  0  0
 21 22  1  0  0  0  0
 21 23  1  0  0  0  0
 23 24  2  0  0  0  0
 18 24  1  0  0  0  0
  5 25  1  0  0  0  0
 25 26  2  0  0  0  0
 25 27  1  0  0  0  0
 27 28  1  0  0  0  0
 27 29  1  0  0  0  0
 29 30  2  0  0  0  0
 30 31  1  0  0  0  0
 31 32  2  0  0  0  0
 32 33  1  0  0  0  0
 33 34  2  0  0  0  0
 29 34  1  0  0  0  0
M  END
> <ID>
CPD_3370

$$$$
CPD_3375
  Mrv1822 09091914012D          

 32 34  0  0  0  0            999 V2000
    1.5137    1.2568    0.0000 C   0  0  0  0  0  0  0  0  0  0  0  0
    1.1012    0.5423    0.0000 C   0  0  0  0  0  0  0  0  0  0  0  0
    1.5137   -0.1721    0.0000 O   0  0  0  0  0  0  0  0  0  0  0  0
    2.3387   -0.1721    0.0000 C   0  0  0  0  0  0  0  0  0  0  0  0
    2.7512    0.5423    0.0000 O   0  0  0  0  0  0  0  0  0  0  0  0
    2.7512   -0.8866    0.0000 C   0  0  0  0  0  0  0  0  0  0  0  0
    3.1637   -1.6011    0.0000 C   0  0  0  0  0  0  0  0  0  0  0  0
    2.7512   -2.3155    0.0000 O   0  0  0  0  0  0  0  0  0  0  0  0
    3.9887   -1.6011    0.0000 O   0  0  0  0  0  0  0  0  0  0  0  0
    4.4012   -2.3155    0.0000 C   0  0  0  0  0  0  0  0  0  0  0  0
    3.9887   -3.0300    0.0000 C   0  0  0  0  0  0  0  0  0  0  0  0
    2.0367   -1.2991    0.0000 C   0  0  0  0  0  0  0  0  0  0  0  0
    1.3222   -0.8866    0.0000 O   0  0  0  0  0  0  0  0  0  0  0  0
    2.0367   -2.1241    0.0000 C   0  0  0  0  0  0  0  0  0  0  0  0
    2.7041   -2.6090    0.0000 C   0  0  0  0  0  0  0  0  0  0  0  0
    2.4492   -3.3937    0.0000 N   0  0  0  0  0  0  0  0  0  0  0  0
    1.6242   -3.3937    0.0000 C   0  0  0  0  0  0  0  0  0  0  0  0
    1.3693   -2.6090    0.0000 S   0  0  0  0  0  0  0  0  0  0  0  0
    1.1393   -4.0611    0.0000 C   0  0  0  0  0  0  0  0  0  0  0  0
    1.4748   -4.8148    0.0000 C   0  0  0  0  0  0  0  0  0  0  0  0
    0.9899   -5.4822    0.0000 C   0  0  0  0  0  0  0  0  0  0  0  0
    0.1694   -5.3960    0.0000 C   0  0  0  0  0  0  0  0  0  0  0  0
   -0.1661   -4.6423    0.0000 C   0  0  0  0  0  0  0  0  0  0  0  0
    0.3188   -3.9749    0.0000 C   0  0  0  0  0  0  0  0  0  0  0  0
    3.4656   -0.4741    0.0000 C   0  0  0  0  0  0  0  0  0  0  0  0
    3.4656    0.3509    0.0000 C   0  0  0  0  0  0  0  0  0  0  0  0
    4.1801    0.7634    0.0000 C   0  0  0  0  0  0  0  0  0  0  0  0
    4.8946    0.3509    0.0000 C   0  0  0  0  0  0  0  0  0  0  0  0
    5.6091    0.7634    0.0000 O   0  0  0  0  0  0  0  0  0  0  0  0
    5.6091    1.5884    0.0000 C   0  0  0  0  0  0  0  0  0  0  0  0
    4.8946   -0.4741    0.0000 N   0  0  0  0  0  0  0  0  0  0  0  0
    4.1801   -0.8866    0.0000 C   0  0  0  0  0  0  0  0  0  0  0  0
  1  2  1  0  0  0  0
  2  3  1  0  0  0  0
  3  4  1  0  0  0  0
  4  5  2  0  0  0  0
  4  6  1  0  0  0  0
  6  7  1  0  0  0  0
  7  8  2  0  0  0  0
  7  9  1  0  0  0  0
  9 10  1  0  0  0  0
 10 11  1  0  0  0  0
  6 12  1  0  0  0  0
 12 13  2  0  0  0  0
 12 14  1  0  0  0  0
 14 15  2  0  0  0  0
 15 16  1  0  0  0  0
 16 17  2  0  0  0  0
 17 18  1  0  0  0  0
 14 18  1  0  0  0  0
 17 19  1  0  0  0  0
 19 20  2  0  0  0  0
 20 21  1  0  0  0  0
 21 22  2  0  0  0  0
 22 23  1  0  0  0  0
 23 24  2  0  0  0  0
 19 24  1  0  0  0  0
  6 25  1  0  0  0  0
 25 26  2  0  0  0  0
 26 27  1  0  0  0  0
 27 28  2  0  0  0  0
 28 29  1  0  0  0  0
 29 30  1  0  0  0  0
 28 31  1  0  0  0  0
 31 32  2  0  0  0  0
 25 32  1  0  0  0  0
M  END
> <ID>
CPD_3375

$$$$
CPD_3380
  Mrv1822 09091914012D          

 40 43  0  0  0  0            999 V2000
   -0.7249   -0.8845    0.0000 C   0  0  0  0  0  0  0  0  0  0  0  0
   -0.0575   -0.3996    0.0000 C   0  0  0  0  0  0  0  0  0  0  0  0
    0.6962   -0.7352    0.0000 O   0  0  0  0  0  0  0  0  0  0  0  0
    1.3637   -0.2503    0.0000 C   0  0  0  0  0  0  0  0  0  0  0  0
    1.2774    0.5702    0.0000 O   0  0  0  0  0  0  0  0  0  0  0  0
    2.1173   -0.5858    0.0000 C   0  0  0  0  0  0  0  0  0  0  0  0
    2.8710   -0.9214    0.0000 C   0  0  0  0  0  0  0  0  0  0  0  0
    2.9572   -1.7418    0.0000 O   0  0  0  0  0  0  0  0  0  0  0  0
    3.5384   -0.4364    0.0000 O   0  0  0  0  0  0  0  0  0  0  0  0
    4.2921   -0.7720    0.0000 C   0  0  0  0  0  0  0  0  0  0  0  0
    4.9596   -0.2871    0.0000 C   0  0  0  0  0  0  0  0  0  0  0  0
    1.7818   -1.3395    0.0000 C   0  0  0  0  0  0  0  0  0  0  0  0
    0.9748   -1.1680    0.0000 O   0  0  0  0  0  0  0  0  0  0  0  0
    2.0367   -2.1241    0.0000 C   0  0  0  0  0  0  0  0  0  0  0  0
    2.7041   -2.6090    0.0000 C   0  0  0  0  0  0  0  0  0  0  0  0
    2.4492   -3.3937    0.0000 N   0  0  0  0  0  0  0  0  0  0  0  0
    1.6242   -3.3937    0.0000 N   0  0  0  0  0  0  0  0  0  0  0  0
    1.3693   -2.6090    0.0000 N   0  0  0  0  0  0  0  0  0  0  0  0
    2.9341   -4.0611    0.0000 C   0  0  0  0  0  0  0  0  0  0  0  0
    3.7546   -3.9749    0.0000 C   0  0  0  0  0  0  0  0  0  0  0  0
    4.2395   -4.6423    0.0000 C   0  0  0  0  0  0  0  0  0  0  0  0
    5.0600   -4.5561    0.0000 C   0  0  0  0  0  0  0  0  0  0  0  0
    3.9040   -5.3960    0.0000 C   0  0  0  0  0  0  0  0  0  0  0  0
    3.0835   -5.4822    0.0000 C   0  0  0  0  0  0  0  0  0  0  0  0
    2.5986   -4.8148    0.0000 C   0  0  0  0  0  0  0  0  0  0  0  0
    1.7781   -4.9010    0.0000 F   0  0  0  0  0  0  0  0  0  0  0  0
    3.4888   -2.3541    0.0000 C   0  0  0  0  0  0  0  0  0  0  0  0
    4.1019   -2.9061    0.0000 C   0  0  0  0  0  0  0  0  0  0  0  0
    4.8865   -2.6512    0.0000 C   0  0  0  0  0  0  0  0  0  0  0  0
    5.0580   -1.8442    0.0000 C   0  0  0  0  0  0  0  0  0  0  0  0
    4.4449   -1.2922    0.0000 N   0  0  0  0  0  0  0  0  0  0  0  0
    3.6603   -1.5471    0.0000 C   0  0  0  0  0  0  0  0  0  0  0  0
    2.4529    0.1679    0.0000 C   0  0  0  0  0  0  0  0  0  0  0  0
    1.9680    0.8353    0.0000 C   0  0  0  0  0  0  0  0  0  0  0  0
    2.3035    1.5890    0.0000 C   0  0  0  0  0  0  0  0  0  0  0  0
    3.1240    1.6752    0.0000 C   0  0  0  0  0  0  0  0  0  0  0  0
    3.4596    2.4289    0.0000 O   0  0  0  0  0  0  0  0  0  0  0  0
    2.9746    3.0963    0.0000 C   0  0  0  0  0  0  0  0  0  0  0  0
    3.6089    1.0078    0.0000 N   0  0  0  0  0  0  0  0  0  0  0  0
    3.2734    0.2541    0.0000 C   0  0  0  0  0  0  0  0  0  0  0  0
  1  2  1  0  0  0  0
  2  3  1  0  0  0  0
  3  4  1  0  0  0  0
  4  5  2  0  0  0  0
  4  6  1  0  0  0  0
  6  7  1  0  0  0  0
  7  8  2  0  0  0  0
  7  9  1  0  0  0  0
  9 10  1  0  0  0  0
 10 11  1  0  0  0  0
  6 12  1  0  0  0  0
 12 13  2  0  0  0  0
 12 14  1  0  0  0  0
 14 15  2  0  0  0  0
 15 16  1  0  0  0  0
 16 17  1  0  0  0  0
 17 18  2  0  0  0  0
 14 18  1  0  0  0  0
 16 19  1  0  0  0  0
 19 20  2  0  0  0  0
 20 21  1  0  0  0  0
 21 22  1  0  0  0  0
 21 23  2  0  0  0  0
 23 24  1  0  0  0  0
 24 25  2  0  0  0  0
 19 25  1  0  0  0  0
 25 26  1  0  0  0  0
 15 27  1  0  0  0  0
 27 28  2  0  0  0  0
 28 29  1  0  0  0  0
 29 30  2  0  0  0  0
 30 31  1  0  0  0  0
 31 32  2  0  0  0  0
 27 32  1  0  0  0  0
  6 33  1  0  0  0  0
 33 34  2  0  0  0  0
 34 35  1  0  0  0  0
 35 36  2  0  0  0  0
 36 37  1  0  0  0  0
 37 38  1  0  0  0  0
 36 39  1  0  0  0  0
 39 40  2  0  0  0  0
 33 40  1  0  0  0  0
M  END
> <ID>
CPD_3380

$$$$
CPD_3385
  Mrv1822 09091914012D          

 30 32  0  0  0  0            999 V2000
    3.4990    3.9683    0.0000 C   0  0  0  0  0  0  0  0  0  0  0  0
    3.0865    3.2539    0.0000 C   0  0  0  0  0  0  0  0  0  0  0  0
    3.4990    2.5394    0.0000 O   0  0  0  0  0  0  0  0  0  0  0  0
    3.0865    1.8249    0.0000 C   0  0  0  0  0  0  0  0  0  0  0  0
    2.4191    2.3098    0.0000 O   0  0  0  0  0  0  0  0  0  0  0  0
    3.4990    1.1104    0.0000 C   0  0  0  0  0  0  0  0  0  0  0  0
    3.9115    0.3960    0.0000 C   0  0  0  0  0  0  0  0  0  0  0  0
    4.7365    0.3960    0.0000 O   0  0  0  0  0  0  0  0  0  0  0  0
    3.4990   -0.3185    0.0000 O   0  0  0  0  0  0  0  0  0  0  0  0
    3.9115   -1.0330    0.0000 C   0  0  0  0  0  0  0  0  0  0  0  0
    3.4990   -1.7474    0.0000 C   0  0  0  0  0  0  0  0  0  0  0  0
    2.7845    0.6979    0.0000 C   0  0  0  0  0  0  0  0  0  0  0  0
    2.7845   -0.1271    0.0000 O   0  0  0  0  0  0  0  0  0  0  0  0
    2.0701    1.1104    0.0000 C   0  0  0  0  0  0  0  0  0  0  0  0
    1.3556    0.6979    0.0000 N   0  0  0  0  0  0  0  0  0  0  0  0
    0.6411    1.1104    0.0000 C   0  0  0  0  0  0  0  0  0  0  0  0
    0.6411    1.9354    0.0000 C   0  0  0  0  0  0  0  0  0  0  0  0
   -0.1435    2.1904    0.0000 C   0  0  0  0  0  0  0  0  0  0  0  0
   -0.6284    1.5229    0.0000 C   0  0  0  0  0  0  0  0  0  0  0  0
   -0.1435    0.8555    0.0000 N   0  0  0  0  0  0  0  0  0  0  0  0
    1.3556    2.3479    0.0000 C   0  0  0  0  0  0  0  0  0  0  0  0
    2.0701    1.9354    0.0000 N   0  0  0  0  0  0  0  0  0  0  0  0
    4.2135    1.5229    0.0000 C   0  0  0  0  0  0  0  0  0  0  0  0
    4.2135    2.3479    0.0000 C   0  0  0  0  0  0  0  0  0  0  0  0
    4.9279    2.7604    0.0000 C   0  0  0  0  0  0  0  0  0  0  0  0
    5.6424    2.3479    0.0000 C   0  0  0  0  0  0  0  0  0  0  0  0
    6.3569    2.7604    0.0000 O   0  0  0  0  0  0  0  0  0  0  0  0
    6.3569    3.5854    0.0000 C   0  0  0  0  0  0  0  0  0  0  0  0
    5.6424    1.5229    0.0000 N   0  0  0  0  0  0  0  0  0  0  0  0
    4.9279    1.1104    0.0000 C   0  0  0  0  0  0  0  0  0  0  0  0
  1  2  1  0  0  0  0
  2  3  1  0  0  0  0
  3  4  1  0  0  0  0
  4  5  2  0  0  0  0
  4  6  1  0  0  0  0
  6  7  1  0  0  0  0
  7  8  2  0  0  0  0
  7  9  1  0  0  0  0
  9 10  1  0  0  0  0
 10 11  1  0  0  0  0
  6 12  1  0  0  0  0
 12 13  2  0  0  0  0
 12 14  1  0  0  0  0
 14 15  2  0  0  0  0
 15 16  1  0  0  0  0
 16 17  2  0  0  0  0
 17 18  1  0  0  0  0
 18 19  2  0  0  0  0
 19 20  1  0  0  0  0
 16 20  1  0  0  0  0
 17 21  1  0  0  0  0
 21 22  2  0  0  0  0
 14 22  1  0  0  0  0
  6 23  1  0  0  0  0
 23 24  2  0  0  0  0
 24 25  1  0  0  0  0
 25 26  2  0  0  0  0
 26 27  1  0  0  0  0
 27 28  1  0  0  0  0
 26 29  1  0  0  0  0
 29 30  2  0  0  0  0
 23 30  1  0  0  0  0
M  END
> <ID>
CPD_3385

$$$$
CPD_3390
  Mrv1822 09091914012D          

 34 36  0  0  0  0            999 V2000
    2.5315    0.1232    0.0000 C   0  0  0  0  0  0  0  0  0  0  0  0
    2.9440   -0.5912    0.0000 O   0  0  0  0  0  0  0  0  0  0  0  0
    3.7690   -0.5912    0.0000 C   0  0  0  0  0  0  0  0  0  0  0  0
    4.1815    0.1232    0.0000 O   0  0  0  0  0  0  0  0  0  0  0  0
    4.1815   -1.3057    0.0000 C   0  0  0  0  0  0  0  0  0  0  0  0
    5.0065   -1.3057    0.0000 N   0  0  0  0  0  0  0  0  0  0  0  0
    5.4190   -2.0202    0.0000 C   0  0  0  0  0  0  0  0  0  0  0  0
    5.0065   -2.7346    0.0000 C   0  0  0  0  0  0  0  0  0  0  0  0
    5.4190   -3.4491    0.0000 C   0  0  0  0  0  0  0  0  0  0  0  0
    6.2440   -3.4491    0.0000 C   0  0  0  0  0  0  0  0  0  0  0  0
    6.6565   -2.7346    0.0000 C   0  0  0  0  0  0  0  0  0  0  0  0
    6.2440   -2.0202    0.0000 C   0  0  0  0  0  0  0  0  0  0  0  0
    6.6565   -1.3057    0.0000 O   0  0  0  0  0  0  0  0  0  0  0  0
    7.4815   -1.3057    0.0000 C   0  0  0  0  0  0  0  0  0  0  0  0
    5.4190   -0.5912    0.0000 S   0  0  0  0  0  0  0  0  0  0  0  0
    5.8315    0.1232    0.0000 C   0  0  0  0  0  0  0  0  0  0  0  0
    6.1334   -1.0037    0.0000 O   0  0  0  0  0  0  0  0  0  0  0  0
    4.7045   -0.1787    0.0000 O   0  0  0  0  0  0  0  0  0  0  0  0
    3.7690   -2.0202    0.0000 C   0  0  0  0  0  0  0  0  0  0  0  0
    4.1815   -2.7346    0.0000 O   0  0  0  0  0  0  0  0  0  0  0  0
    2.9440   -2.0202    0.0000 C   0  0  0  0  0  0  0  0  0  0  0  0
    2.4591   -2.6876    0.0000 C   0  0  0  0  0  0  0  0  0  0  0  0
    2.7140   -3.4722    0.0000 N   0  0  0  0  0  0  0  0  0  0  0  0
    1.6744   -2.4327    0.0000 C   0  0  0  0  0  0  0  0  0  0  0  0
    0.9600   -2.8452    0.0000 N   0  0  0  0  0  0  0  0  0  0  0  0
    0.2455   -2.4327    0.0000 C   0  0  0  0  0  0  0  0  0  0  0  0
    0.2455   -1.6077    0.0000 C   0  0  0  0  0  0  0  0  0  0  0  0
    0.9600   -1.1952    0.0000 C   0  0  0  0  0  0  0  0  0  0  0  0
    1.6744   -1.6077    0.0000 C   0  0  0  0  0  0  0  0  0  0  0  0
    2.4591   -1.3527    0.0000 S   0  0  0  0  0  0  0  0  0  0  0  0
   -0.4690   -1.1952    0.0000 C   0  0  0  0  0  0  0  0  0  0  0  0
   -1.1834   -0.7827    0.0000 F   0  0  0  0  0  0  0  0  0  0  0  0
   -0.0565   -0.4807    0.0000 F   0  0  0  0  0  0  0  0  0  0  0  0
   -0.8815   -1.9096    0.0000 F   0  0  0  0  0  0  0  0  0  0  0  0
  1  2  1  0  0  0  0
  2  3  1  0  0  0  0
  3  4  2  0  0  0  0
  3  5  1  0  0  0  0
  5  6  1  0  0  0  0
  6  7  1  0  0  0  0
  7  8  2  0  0  0  0
  8  9  1  0  0  0  0
  9 10  2  0  0  0  0
 10 11  1  0  0  0  0
 11 12  2  0  0  0  0
  7 12  1  0  0  0  0
 12 13  1  0  0  0  0
 13 14  1  0  0  0  0
  6 15  1  0  0  0  0
 15 16  1  0  0  0  0
 15 17  2  0  0  0  0
 15 18  2  0  0  0  0
  5 19  1  0  0  0  0
 19 20  2  0  0  0  0
 19 21  1  0  0  0  0
 21 22  2  0  0  0  0
 22 23  1  0  0  0  0
 22 24  1  0  0  0  0
 24 25  2  0  0  0  0
 25 26  1  0  0  0  0
 26 27  2  0  0  0  0
 27 28  1  0  0  0  0
 28 29  2  0  0  0  0
 24 29  1  0  0  0  0
 29 30  1  0  0  0  0
 21 30  1  0  0  0  0
 27 31  1  0  0  0  0
 31 32  1  0  0  0  0
 31 33  1  0  0  0  0
 31 34  1  0  0  0  0
M  END
> <ID>
CPD_3390

$$$$
CPD_3395
  Mrv1822 09091914012D          

 27 27  0  0  0  0            999 V2000
   -4.2081   -2.1177    0.0000 C   0  0  0  0  0  0  0  0  0  0  0  0
   -3.6680   -1.4941    0.0000 C   0  0  0  0  0  0  0  0  0  0  0  0
   -2.8579   -1.6500    0.0000 C   0  0  0  0  0  0  0  0  0  0  0  0
   -2.3178   -1.0264    0.0000 C   0  0  0  0  0  0  0  0  0  0  0  0
   -1.5077   -1.1823    0.0000 C   0  0  0  0  0  0  0  0  0  0  0  0
   -1.2376   -1.9618    0.0000 C   0  0  0  0  0  0  0  0  0  0  0  0
   -1.7777   -2.5855    0.0000 C   0  0  0  0  0  0  0  0  0  0  0  0
   -0.9676   -0.5586    0.0000 C   0  0  0  0  0  0  0  0  0  0  0  0
   -1.2376    0.2209    0.0000 O   0  0  0  0  0  0  0  0  0  0  0  0
   -0.1574   -0.7145    0.0000 C   0  0  0  0  0  0  0  0  0  0  0  0
    0.3827   -0.0909    0.0000 N   0  0  0  0  0  0  0  0  0  0  0  0
    0.1126    0.6887    0.0000 C   0  0  0  0  0  0  0  0  0  0  0  0
   -0.6975    0.8446    0.0000 C   0  0  0  0  0  0  0  0  0  0  0  0
   -0.9676    1.6241    0.0000 C   0  0  0  0  0  0  0  0  0  0  0  0
   -0.4275    2.2478    0.0000 C   0  0  0  0  0  0  0  0  0  0  0  0
    0.3827    2.0918    0.0000 C   0  0  0  0  0  0  0  0  0  0  0  0
    0.6527    1.3123    0.0000 C   0  0  0  0  0  0  0  0  0  0  0  0
    1.4628    1.1564    0.0000 O   0  0  0  0  0  0  0  0  0  0  0  0
    2.0029    1.7800    0.0000 C   0  0  0  0  0  0  0  0  0  0  0  0
    1.1928   -0.2468    0.0000 S   0  0  0  0  0  0  0  0  0  0  0  0
    1.3487    0.5633    0.0000 C   0  0  0  0  0  0  0  0  0  0  0  0
    2.0029   -0.4027    0.0000 O   0  0  0  0  0  0  0  0  0  0  0  0
    1.0369   -1.0569    0.0000 O   0  0  0  0  0  0  0  0  0  0  0  0
    0.1126   -1.4941    0.0000 C   0  0  0  0  0  0  0  0  0  0  0  0
   -0.4275   -2.1177    0.0000 O   0  0  0  0  0  0  0  0  0  0  0  0
    0.9227   -1.6500    0.0000 O   0  0  0  0  0  0  0  0  0  0  0  0
    1.1928   -2.4296    0.0000 C   0  0  0  0  0  0  0  0  0  0  0  0
  1  2  1  0  0  0  0
  2  3  1  0  0  0  0
  3  4  1  0  0  0  0
  4  5  1  0  0  0  0
  5  6  1  0  0  0  0
  6  7  1  0  0  0  0
  5  8  1  0  0  0  0
  8  9  2  0  0  0  0
  8 10  1  0  0  0  0
 10 11  1  0  0  0  0
 11 12  1  0  0  0  0
 12 13  2  0  0  0  0
 13 14  1  0  0  0  0
 14 15  2  0  0  0  0
 15 16  1  0  0  0  0
 16 17  2  0  0  0  0
 12 17  1  0  0  0  0
 17 18  1  0  0  0  0
 18 19  1  0  0  0  0
 11 20  1  0  0  0  0
 20 21  1  0  0  0  0
 20 22  2  0  0  0  0
 20 23  2  0  0  0  0
 10 24  1  0  0  0  0
 24 25  2  0  0  0  0
 24 26  1  0  0  0  0
 26 27  1  0  0  0  0
M  END
> <ID>
CPD_3395

$$$$
CPD_3400
  Mrv1822 09091914012D          

 36 38  0  0  0  0            999 V2000
    5.0013   -2.8875    0.0000 C   0  0  0  0  0  0  0  0  0  0  0  0
    5.0013   -3.7125    0.0000 O   0  0  0  0  0  0  0  0  0  0  0  0
    4.2868   -4.1250    0.0000 C   0  0  0  0  0  0  0  0  0  0  0  0
    3.5724   -3.7125    0.0000 O   0  0  0  0  0  0  0  0  0  0  0  0
    4.2868   -4.9500    0.0000 C   0  0  0  0  0  0  0  0  0  0  0  0
    3.5724   -5.3625    0.0000 N   0  0  0  0  0  0  0  0  0  0  0  0
    3.5724   -6.1875    0.0000 C   0  0  0  0  0  0  0  0  0  0  0  0
    4.2868   -6.6000    0.0000 C   0  0  0  0  0  0  0  0  0  0  0  0
    4.2868   -7.4250    0.0000 C   0  0  0  0  0  0  0  0  0  0  0  0
    5.0013   -7.8375    0.0000 C   0  0  0  0  0  0  0  0  0  0  0  0
    3.5724   -7.8375    0.0000 C   0  0  0  0  0  0  0  0  0  0  0  0
    2.8579   -7.4250    0.0000 C   0  0  0  0  0  0  0  0  0  0  0  0
    2.8579   -6.6000    0.0000 C   0  0  0  0  0  0  0  0  0  0  0  0
    2.8579   -4.9500    0.0000 S   0  0  0  0  0  0  0  0  0  0  0  0
    2.4454   -5.6645    0.0000 O   0  0  0  0  0  0  0  0  0  0  0  0
    3.2704   -4.2355    0.0000 O   0  0  0  0  0  0  0  0  0  0  0  0
    2.1434   -4.5375    0.0000 C   0  0  0  0  0  0  0  0  0  0  0  0
    1.4289   -4.9500    0.0000 C   0  0  0  0  0  0  0  0  0  0  0  0
    0.7145   -4.5375    0.0000 C   0  0  0  0  0  0  0  0  0  0  0  0
    0.7145   -3.7125    0.0000 C   0  0  0  0  0  0  0  0  0  0  0  0
    0.0000   -3.3000    0.0000 C   0  0  0  0  0  0  0  0  0  0  0  0
    1.4289   -3.3000    0.0000 C   0  0  0  0  0  0  0  0  0  0  0  0
    2.1434   -3.7125    0.0000 C   0  0  0  0  0  0  0  0  0  0  0  0
    5.0013   -5.3625    0.0000 C   0  0  0  0  0  0  0  0  0  0  0  0
    5.0013   -6.1875    0.0000 O   0  0  0  0  0  0  0  0  0  0  0  0
    5.7158   -4.9500    0.0000 C   0  0  0  0  0  0  0  0  0  0  0  0
    6.4302   -5.3625    0.0000 C   0  0  0  0  0  0  0  0  0  0  0  0
    6.4302   -6.1875    0.0000 O   0  0  0  0  0  0  0  0  0  0  0  0
    7.1447   -4.9500    0.0000 N   0  0  0  0  0  0  0  0  0  0  0  0
    7.8592   -5.3625    0.0000 C   0  0  0  0  0  0  0  0  0  0  0  0
    8.5737   -4.9500    0.0000 C   0  0  0  0  0  0  0  0  0  0  0  0
    9.2881   -5.3625    0.0000 C   0  0  0  0  0  0  0  0  0  0  0  0
    9.2881   -6.1875    0.0000 C   0  0  0  0  0  0  0  0  0  0  0  0
   10.0026   -6.6000    0.0000 Cl  0  0  0  0  0  0  0  0  0  0  0  0
    8.5737   -6.6000    0.0000 C   0  0  0  0  0  0  0  0  0  0  0  0
    7.8592   -6.1875    0.0000 C   0  0  0  0  0  0  0  0  0  0  0  0
  1  2  1  0  0  0  0
  2  3  1  0  0  0  0
  3  4  2  0  0  0  0
  3  5  1  0  0  0  0
  5  6  1  0  0  0  0
  6  7  1  0  0  0  0
  7  8  2  0  0  0  0
  8  9  1  0  0  0  0
  9 10  1  0  0  0  0
  9 11  2  0  0  0  0
 11 12  1  0  0  0  0
 12 13  2  0  0  0  0
  7 13  1  0  0  0  0
  6 14  1  0  0  0  0
 14 15  2  0  0  0  0
 14 16  2  0  0  0  0
 14 17  1  0  0  0  0
 17 18  2  0  0  0  0
 18 19  1  0  0  0  0
 19 20  2  0  0  0  0
 20 21  1  0  0  0  0
 20 22  1  0  0  0  0
 22 23  2  0  0  0  0
 17 23  1  0  0  0  0
  5 24  1  0  0  0  0
 24 25  2  0  0  0  0
 24 26  1  0  0  0  0
 26 27  1  0  0  0  0
 27 28  2  0  0  0  0
 27 29  1  0  0  0  0
 29 30  1  0  0  0  0
 30 31  2  0  0  0  0
 31 32  1  0  0  0  0
 32 33  2  0  0  0  0
 33 34  1  0  0  0  0
 33 35  1  0  0  0  0
 35 36  2  0  0  0  0
 30 36  1  0  0  0  0
M  END
> <ID>
CPD_3400

$$$$
CPD_3405
  Mrv1822 09091914012D          

 47 48  0  0  1  0            999 V2000
   -0.6595   -2.0942    0.0000 C   0  0  0  0  0  0  0  0  0  0  0  0
   -1.3740   -1.6817    0.0000 C   0  0  0  0  0  0  0  0  0  0  0  0
   -1.3740   -0.8567    0.0000 C   0  0  0  0  0  0  0  0  0  0  0  0
   -0.6595   -0.4442    0.0000 C   0  0  0  0  0  0  0  0  0  0  0  0
    0.0550   -0.8567    0.0000 C   0  0  0  0  0  0  0  0  0  0  0  0
    0.0550   -1.6817    0.0000 C   0  0  0  0  0  0  0  0  0  0  0  0
   -0.6595    0.3808    0.0000 N   0  0  0  0  0  0  0  0  0  0  0  0
    0.0550    0.7933    0.0000 C   0  0  0  0  0  0  0  0  0  0  0  0
    0.0550    1.6183    0.0000 C   0  0  0  0  0  0  0  0  0  0  0  0
    0.7694    2.0308    0.0000 C   0  0  0  0  0  0  0  0  0  0  0  0
    1.4839    1.6183    0.0000 C   0  0  0  0  0  0  0  0  0  0  0  0
    1.4839    0.7933    0.0000 C   0  0  0  0  0  0  0  0  0  0  0  0
    0.7694    0.3808    0.0000 C   0  0  0  0  0  0  0  0  0  0  0  0
    4.9827    2.3054    0.0000 C   0  0  0  0  0  0  0  0  0  0  0  0
    5.3952    1.5909    0.0000 O   0  0  0  0  0  0  0  0  0  0  0  0
    4.9827    0.8764    0.0000 C   0  0  0  0  0  0  0  0  0  0  0  0
    4.1577    0.8764    0.0000 O   0  0  0  0  0  0  0  0  0  0  0  0
    5.3952    0.1620    0.0000 C   0  0  0  0  0  0  0  0  0  0  0  0
    5.8077   -0.5525    0.0000 C   0  0  0  0  0  0  0  0  0  0  0  0
    4.6807   -0.2505    0.0000 N   0  0  0  0  0  0  0  0  0  0  0  0
    4.6807   -1.0755    0.0000 C   0  0  0  0  0  0  0  0  0  0  0  0
    5.3952   -1.4880    0.0000 C   0  0  0  0  0  0  0  0  0  0  0  0
    5.3952   -2.3130    0.0000 C   0  0  0  0  0  0  0  0  0  0  0  0
    4.6807   -2.7255    0.0000 C   0  0  0  0  0  0  0  0  0  0  0  0
    4.6807   -3.5505    0.0000 O   0  0  0  0  0  0  0  0  0  0  0  0
    5.3952   -3.9630    0.0000 C   0  0  0  0  0  0  0  0  0  0  0  0
    3.9662   -2.3130    0.0000 C   0  0  0  0  0  0  0  0  0  0  0  0
    3.9662   -1.4880    0.0000 C   0  0  0  0  0  0  0  0  0  0  0  0
    3.9662    0.1620    0.0000 S   0  0  0  0  0  0  0  0  0  0  0  0
    3.8800    0.9825    0.0000 C   0  0  0  0  0  0  0  0  0  0  0  0
    3.5537   -0.5525    0.0000 O   0  0  0  0  0  0  0  0  0  0  0  0
    3.2518    0.5745    0.0000 O   0  0  0  0  0  0  0  0  0  0  0  0
    6.1096    0.5745    0.0000 C   0  0  0  0  0  0  0  0  0  0  0  0
    6.1096    1.3995    0.0000 O   0  0  0  0  0  0  0  0  0  0  0  0
    6.8241    0.1620    0.0000 C   0  0  0  0  0  0  0  0  0  0  0  0
    7.5386    0.5745    0.0000 C   0  0  1  0  0  0  0  0  0  0  0  0
    8.2531    0.1620    0.0000 N   0  0  0  0  0  0  0  0  0  0  0  0
    8.9675    0.5745    0.0000 C   0  0  0  0  0  0  0  0  0  0  0  0
    8.9675    1.3995    0.0000 O   0  0  0  0  0  0  0  0  0  0  0  0
    9.6820    0.1620    0.0000 O   0  0  0  0  0  0  0  0  0  0  0  0
   10.3965    0.5745    0.0000 C   0  0  0  0  0  0  0  0  0  0  0  0
   11.1109    0.9870    0.0000 C   0  0  0  0  0  0  0  0  0  0  0  0
   10.8090   -0.1400    0.0000 C   0  0  0  0  0  0  0  0  0  0  0  0
    9.9840    1.2889    0.0000 C   0  0  0  0  0  0  0  0  0  0  0  0
    7.5386    1.3995    0.0000 C   0  0  0  0  0  0  0  0  0  0  0  0
    8.2531    1.8120    0.0000 O   0  0  0  0  0  0  0  0  0  0  0  0
    6.8241    1.8120    0.0000 O   0  0  0  0  0  0  0  0  0  0  0  0
  1  2  1  0  0  0  0
  2  3  1  0  0  0  0
  3  4  1  0  0  0  0
  4  5  1  0  0  0  0
  5  6  1  0  0  0  0
  1  6  1  0  0  0  0
  4  7  1  0  0  0  0
  7  8  1  0  0  0  0
  8  9  1  0  0  0  0
  9 10  1  0  0  0  0
 10 11  1  0  0  0  0
 11 12  1  0  0  0  0
 12 13  1  0  0  0  0
  8 13  1  0  0  0  0
 14 15  1  0  0  0  0
 15 16  1  0  0  0  0
 16 17  2  0  0  0  0
 16 18  1  0  0  0  0
 18 19  1  0  0  0  0
 18 20  1  0  0  0  0
 20 21  1  0  0  0  0
 21 22  2  0  0  0  0
 22 23  1  0  0  0  0
 23 24  2  0  0  0  0
 24 25  1  0  0  0  0
 25 26  1  0  0  0  0
 24 27  1  0  0  0  0
 27 28  2  0  0  0  0
 21 28  1  0  0  0  0
 20 29  1  0  0  0  0
 29 30  1  0  0  0  0
 29 31  2  0  0  0  0
 29 32  2  0  0  0  0
 18 33  1  0  0  0  0
 33 34  2  0  0  0  0
 33 35  1  0  0  0  0
 36 35  1  0  0  0  0
 36 37  1  6  0  0  0
 37 38  1  0  0  0  0
 38 39  2  0  0  0  0
 38 40  1  0  0  0  0
 40 41  1  0  0  0  0
 41 42  1  0  0  0  0
 41 43  1  0  0  0  0
 41 44  1  0  0  0  0
 36 45  1  0  0  0  0
 45 46  1  0  0  0  0
 45 47  2  0  0  0  0
M  END
> <ID>
CPD_3405

$$$$
CPD_3410
  Mrv1822 09091914012D          

 24 24  0  0  0  0            999 V2000
   -2.1434    2.8875    0.0000 C   0  0  0  0  0  0  0  0  0  0  0  0
   -1.4289    2.4750    0.0000 O   0  0  0  0  0  0  0  0  0  0  0  0
   -0.7145    2.8875    0.0000 C   0  0  0  0  0  0  0  0  0  0  0  0
   -0.7145    3.7125    0.0000 O   0  0  0  0  0  0  0  0  0  0  0  0
    0.0000    2.4750    0.0000 C   0  0  0  0  0  0  0  0  0  0  0  0
   -0.4125    1.7605    0.0000 C   0  0  0  0  0  0  0  0  0  0  0  0
    0.7145    2.0625    0.0000 N   0  0  0  0  0  0  0  0  0  0  0  0
    0.7145    1.2375    0.0000 C   0  0  0  0  0  0  0  0  0  0  0  0
    1.4289    0.8250    0.0000 C   0  0  0  0  0  0  0  0  0  0  0  0
    1.4289   -0.0000    0.0000 C   0  0  0  0  0  0  0  0  0  0  0  0
    0.7145   -0.4125    0.0000 C   0  0  0  0  0  0  0  0  0  0  0  0
    0.7145   -1.2375    0.0000 O   0  0  0  0  0  0  0  0  0  0  0  0
    1.4289   -1.6500    0.0000 C   0  0  0  0  0  0  0  0  0  0  0  0
    0.0000    0.0000    0.0000 C   0  0  0  0  0  0  0  0  0  0  0  0
    0.0000    0.8250    0.0000 C   0  0  0  0  0  0  0  0  0  0  0  0
    1.4289    2.4750    0.0000 S   0  0  0  0  0  0  0  0  0  0  0  0
    2.1434    2.8875    0.0000 C   0  0  0  0  0  0  0  0  0  0  0  0
    1.8414    1.7605    0.0000 O   0  0  0  0  0  0  0  0  0  0  0  0
    1.0164    3.1895    0.0000 O   0  0  0  0  0  0  0  0  0  0  0  0
    0.4125    3.1895    0.0000 C   0  0  0  0  0  0  0  0  0  0  0  0
    1.1971    3.4444    0.0000 O   0  0  0  0  0  0  0  0  0  0  0  0
    0.0000    3.9039    0.0000 C   0  0  0  0  0  0  0  0  0  0  0  0
    0.4125    4.6184    0.0000 F   0  0  0  0  0  0  0  0  0  0  0  0
   -0.7846    4.1589    0.0000 F   0  0  0  0  0  0  0  0  0  0  0  0
  1  2  1  0  0  0  0
  2  3  1  0  0  0  0
  3  4  2  0  0  0  0
  3  5  1  0  0  0  0
  5  6  1  0  0  0  0
  5  7  1  0  0  0  0
  7  8  1  0  0  0  0
  8  9  2  0  0  0  0
  9 10  1  0  0  0  0
 10 11  2  0  0  0  0
 11 12  1  0  0  0  0
 12 13  1  0  0  0  0
 11 14  1  0  0  0  0
 14 15  2  0  0  0  0
  8 15  1  0  0  0  0
  7 16  1  0  0  0  0
 16 17  1  0  0  0  0
 16 18  2  0  0  0  0
 16 19  2  0  0  0  0
  5 20  1  0  0  0  0
 20 21  2  0  0  0  0
 20 22  1  0  0  0  0
 22 23  1  0  0  0  0
 22 24  1  0  0  0  0
M  END
> <ID>
CPD_3410

$$$$
CPD_3415
  Mrv1822 09091914012D          

 34 35  0  0  1  0            999 V2000
    1.9224    1.0164    0.0000 C   0  0  0  0  0  0  0  0  0  0  0  0
    2.3349    0.3020    0.0000 O   0  0  0  0  0  0  0  0  0  0  0  0
    3.1599    0.3020    0.0000 C   0  0  0  0  0  0  0  0  0  0  0  0
    3.5724    1.0164    0.0000 O   0  0  0  0  0  0  0  0  0  0  0  0
    3.5724   -0.4125    0.0000 C   0  0  0  0  0  0  0  0  0  0  0  0
    3.9849   -1.1270    0.0000 C   0  0  0  0  0  0  0  0  0  0  0  0
    2.8579   -0.8250    0.0000 N   0  0  0  0  0  0  0  0  0  0  0  0
    2.8579   -1.6500    0.0000 C   0  0  0  0  0  0  0  0  0  0  0  0
    3.5724   -2.0625    0.0000 C   0  0  0  0  0  0  0  0  0  0  0  0
    3.5724   -2.8875    0.0000 C   0  0  0  0  0  0  0  0  0  0  0  0
    2.8579   -3.3000    0.0000 C   0  0  0  0  0  0  0  0  0  0  0  0
    2.8579   -4.1250    0.0000 O   0  0  0  0  0  0  0  0  0  0  0  0
    2.1434   -4.5375    0.0000 C   0  0  0  0  0  0  0  0  0  0  0  0
    2.1434   -2.8875    0.0000 C   0  0  0  0  0  0  0  0  0  0  0  0
    2.1434   -2.0625    0.0000 C   0  0  0  0  0  0  0  0  0  0  0  0
    2.1434   -0.4125    0.0000 S   0  0  0  0  0  0  0  0  0  0  0  0
    1.4289    0.0000    0.0000 C   0  0  0  0  0  0  0  0  0  0  0  0
    2.0572    0.4080    0.0000 O   0  0  0  0  0  0  0  0  0  0  0  0
    1.7309   -1.1270    0.0000 O   0  0  0  0  0  0  0  0  0  0  0  0
    4.2868    0.0000    0.0000 C   0  0  0  0  0  0  0  0  0  0  0  0
    4.2868    0.8250    0.0000 O   0  0  0  0  0  0  0  0  0  0  0  0
    5.0013   -0.4125    0.0000 C   0  0  2  0  0  0  0  0  0  0  0  0
    5.0013   -1.2375    0.0000 C   0  0  0  0  0  0  0  0  0  0  0  0
    5.7158   -1.6500    0.0000 C   0  0  0  0  0  0  0  0  0  0  0  0
    6.4302   -1.2375    0.0000 C   0  0  0  0  0  0  0  0  0  0  0  0
    7.1447   -1.6500    0.0000 C   0  0  0  0  0  0  0  0  0  0  0  0
    7.1447   -2.4750    0.0000 C   0  0  0  0  0  0  0  0  0  0  0  0
    7.8592   -2.8875    0.0000 O   0  0  0  0  0  0  0  0  0  0  0  0
    6.4302   -2.8875    0.0000 C   0  0  0  0  0  0  0  0  0  0  0  0
    5.7158   -2.4750    0.0000 C   0  0  0  0  0  0  0  0  0  0  0  0
    5.7158    0.0000    0.0000 N   0  0  0  0  0  0  0  0  0  0  0  0
    5.7158    0.8250    0.0000 C   0  0  0  0  0  0  0  0  0  0  0  0
    5.0013    1.2375    0.0000 C   0  0  0  0  0  0  0  0  0  0  0  0
    6.4302    1.2375    0.0000 O   0  0  0  0  0  0  0  0  0  0  0  0
  1  2  1  0  0  0  0
  2  3  1  0  0  0  0
  3  4  2  0  0  0  0
  3  5  1  0  0  0  0
  5  6  1  0  0  0  0
  5  7  1  0  0  0  0
  7  8  1  0  0  0  0
  8  9  2  0  0  0  0
  9 10  1  0  0  0  0
 10 11  2  0  0  0  0
 11 12  1  0  0  0  0
 12 13  1  0  0  0  0
 11 14  1  0  0  0  0
 14 15  2  0  0  0  0
  8 15  1  0  0  0  0
  7 16  1  0  0  0  0
 16 17  1  0  0  0  0
 16 18  2  0  0  0  0
 16 19  2  0  0  0  0
  5 20  1  0  0  0  0
 20 21  2  0  0  0  0
 22 20  1  0  0  0  0
 22 23  1  0  0  0  0
 23 24  1  0  0  0  0
 24 25  2  0  0  0  0
 25 26  1  0  0  0  0
 26 27  2  0  0  0  0
 27 28  1  0  0  0  0
 27 29  1  0  0  0  0
 29 30  2  0  0  0  0
 24 30  1  0  0  0  0
 22 31  1  1  0  0  0
 31 32  1  0  0  0  0
 32 33  1  0  0  0  0
 32 34  2  0  0  0  0
M  END
> <ID>
CPD_3415

$$$$
CPD_3420
  Mrv1822 09091914012D          

 19 19  0  0  0  0            999 V2000
   -1.9711    2.2150    0.0000 C   0  0  0  0  0  0  0  0  0  0  0  0
   -1.1586    2.3582    0.0000 C   0  0  0  0  0  0  0  0  0  0  0  0
   -0.6283    1.7262    0.0000 C   0  0  0  0  0  0  0  0  0  0  0  0
    0.1842    1.8695    0.0000 C   0  0  0  0  0  0  0  0  0  0  0  0
    0.4663    2.6447    0.0000 O   0  0  0  0  0  0  0  0  0  0  0  0
    0.7145    1.2375    0.0000 C   0  0  0  0  0  0  0  0  0  0  0  0
    1.4289    0.8250    0.0000 C   0  0  0  0  0  0  0  0  0  0  0  0
    1.4289   -0.0000    0.0000 C   0  0  0  0  0  0  0  0  0  0  0  0
    0.7145   -0.4125    0.0000 C   0  0  0  0  0  0  0  0  0  0  0  0
    0.0000    0.0000    0.0000 N   0  0  0  0  0  0  0  0  0  0  0  0
    0.0000    0.8250    0.0000 C   0  0  0  0  0  0  0  0  0  0  0  0
   -0.7145   -0.4125    0.0000 C   0  0  0  0  0  0  0  0  0  0  0  0
   -0.7145   -1.2375    0.0000 C   0  0  0  0  0  0  0  0  0  0  0  0
   -1.4289    0.0000    0.0000 C   0  0  0  0  0  0  0  0  0  0  0  0
    1.2448    1.8695    0.0000 C   0  0  0  0  0  0  0  0  0  0  0  0
    2.0572    1.7262    0.0000 O   0  0  0  0  0  0  0  0  0  0  0  0
    0.9626    2.6447    0.0000 O   0  0  0  0  0  0  0  0  0  0  0  0
    1.4929    3.2767    0.0000 C   0  0  0  0  0  0  0  0  0  0  0  0
    2.3054    3.1335    0.0000 C   0  0  0  0  0  0  0  0  0  0  0  0
  1  2  1  0  0  0  0
  2  3  1  0  0  0  0
  3  4  1  0  0  0  0
  4  5  2  0  0  0  0
  4  6  1  0  0  0  0
  6  7  1  0  0  0  0
  7  8  1  0  0  0  0
  8  9  1  0  0  0  0
  9 10  1  0  0  0  0
 10 11  1  0  0  0  0
  6 11  1  0  0  0  0
 10 12  1  0  0  0  0
 12 13  1  0  0  0  0
 12 14  1  0  0  0  0
  6 15  1  0  0  0  0
 15 16  2  0  0  0  0
 15 17  1  0  0  0  0
 17 18  1  0  0  0  0
 18 19  1  0  0  0  0
M  END
> <ID>
CPD_3420

$$$$
CPD_3425
  Mrv1822 09091914012D          

 21 21  0  0  0  0            999 V2000
   -1.9711    2.2150    0.0000 C   0  0  0  0  0  0  0  0  0  0  0  0
   -1.1586    2.3582    0.0000 C   0  0  0  0  0  0  0  0  0  0  0  0
   -0.6283    1.7262    0.0000 O   0  0  0  0  0  0  0  0  0  0  0  0
    0.1842    1.8695    0.0000 C   0  0  0  0  0  0  0  0  0  0  0  0
    0.4663    2.6447    0.0000 O   0  0  0  0  0  0  0  0  0  0  0  0
    0.7145    1.2375    0.0000 C   0  0  0  0  0  0  0  0  0  0  0  0
    1.4289    0.8250    0.0000 C   0  0  0  0  0  0  0  0  0  0  0  0
    1.4289   -0.0000    0.0000 C   0  0  0  0  0  0  0  0  0  0  0  0
    0.7145   -0.4125    0.0000 C   0  0  0  0  0  0  0  0  0  0  0  0
    0.0000    0.0000    0.0000 N   0  0  0  0  0  0  0  0  0  0  0  0
    0.0000    0.8250    0.0000 C   0  0  0  0  0  0  0  0  0  0  0  0
   -0.7145   -0.4125    0.0000 C   0  0  0  0  0  0  0  0  0  0  0  0
   -0.7145   -1.2375    0.0000 C   0  0  0  0  0  0  0  0  0  0  0  0
   -1.4289    0.0000    0.0000 C   0  0  0  0  0  0  0  0  0  0  0  0
    1.2448    1.8695    0.0000 C   0  0  0  0  0  0  0  0  0  0  0  0
    2.0572    1.7262    0.0000 O   0  0  0  0  0  0  0  0  0  0  0  0
    0.9626    2.6447    0.0000 O   0  0  0  0  0  0  0  0  0  0  0  0
    1.4929    3.2767    0.0000 C   0  0  0  0  0  0  0  0  0  0  0  0
    2.1249    2.7464    0.0000 C   0  0  0  0  0  0  0  0  0  0  0  0
    0.8609    3.8070    0.0000 C   0  0  0  0  0  0  0  0  0  0  0  0
    2.0232    3.9087    0.0000 C   0  0  0  0  0  0  0  0  0  0  0  0
  1  2  1  0  0  0  0
  2  3  1  0  0  0  0
  3  4  1  0  0  0  0
  4  5  2  0  0  0  0
  4  6  1  0  0  0  0
  6  7  1  0  0  0  0
  7  8  1  0  0  0  0
  8  9  1  0  0  0  0
  9 10  1  0  0  0  0
 10 11  1  0  0  0  0
  6 11  1  0  0  0  0
 10 12  1  0  0  0  0
 12 13  1  0  0  0  0
 12 14  1  0  0  0  0
  6 15  1  0  0  0  0
 15 16  2  0  0  0  0
 15 17  1  0  0  0  0
 17 18  1  0  0  0  0
 18 19  1  0  0  0  0
 18 20  1  0  0  0  0
 18 21  1  0  0  0  0
M  END
> <ID>
CPD_3425

$$$$
CPD_3430
  Mrv1822 09091914012D          

 23 24  0  0  0  0            999 V2000
   -0.7263   -1.3045    0.0000 C   0  0  0  0  0  0  0  0  0  0  0  0
    0.0862   -1.1613    0.0000 C   0  0  0  0  0  0  0  0  0  0  0  0
    0.6165   -1.7933    0.0000 O   0  0  0  0  0  0  0  0  0  0  0  0
    1.4289   -1.6500    0.0000 C   0  0  0  0  0  0  0  0  0  0  0  0
    1.7111   -0.8748    0.0000 O   0  0  0  0  0  0  0  0  0  0  0  0
    1.9592   -2.2820    0.0000 C   0  0  0  0  0  0  0  0  0  0  0  0
    2.6737   -2.6945    0.0000 C   0  0  0  0  0  0  0  0  0  0  0  0
    2.6737   -3.5195    0.0000 C   0  0  0  0  0  0  0  0  0  0  0  0
    1.9592   -3.9320    0.0000 C   0  0  0  0  0  0  0  0  0  0  0  0
    1.2448   -3.5195    0.0000 N   0  0  0  0  0  0  0  0  0  0  0  0
    1.2448   -2.6945    0.0000 C   0  0  0  0  0  0  0  0  0  0  0  0
    0.5303   -3.9320    0.0000 C   0  0  0  0  0  0  0  0  0  0  0  0
   -0.1842   -3.5195    0.0000 C   0  0  0  0  0  0  0  0  0  0  0  0
    0.5303   -4.7570    0.0000 C   0  0  0  0  0  0  0  0  0  0  0  0
    2.4895   -1.6500    0.0000 C   0  0  0  0  0  0  0  0  0  0  0  0
    3.3020   -1.7933    0.0000 O   0  0  0  0  0  0  0  0  0  0  0  0
    2.2074   -0.8748    0.0000 C   0  0  0  0  0  0  0  0  0  0  0  0
    2.7377   -0.2428    0.0000 C   0  0  0  0  0  0  0  0  0  0  0  0
    2.4555    0.5325    0.0000 C   0  0  0  0  0  0  0  0  0  0  0  0
    2.9858    1.1645    0.0000 C   0  0  0  0  0  0  0  0  0  0  0  0
    3.7983    1.0212    0.0000 C   0  0  0  0  0  0  0  0  0  0  0  0
    4.0804    0.2460    0.0000 C   0  0  0  0  0  0  0  0  0  0  0  0
    3.5501   -0.3860    0.0000 C   0  0  0  0  0  0  0  0  0  0  0  0
  1  2  1  0  0  0  0
  2  3  1  0  0  0  0
  3  4  1  0  0  0  0
  4  5  2  0  0  0  0
  4  6  1  0  0  0  0
  6  7  1  0  0  0  0
  7  8  1  0  0  0  0
  8  9  1  0  0  0  0
  9 10  1  0  0  0  0
 10 11  1  0  0  0  0
  6 11  1  0  0  0  0
 10 12  1  0  0  0  0
 12 13  1  0  0  0  0
 12 14  1  0  0  0  0
  6 15  1  0  0  0  0
 15 16  2  0  0  0  0
 15 17  1  0  0  0  0
 17 18  1  0  0  0  0
 18 19  2  0  0  0  0
 19 20  1  0  0  0  0
 20 21  2  0  0  0  0
 21 22  1  0  0  0  0
 22 23  2  0  0  0  0
 18 23  1  0  0  0  0
M  END
> <ID>
CPD_3430

$$$$
CPD_3435
  Mrv1822 09091914012D          

 29 31  0  0  1  0            999 V2000
   -1.1686   -3.4919    0.0000 C   0  0  0  0  0  0  0  0  0  0  0  0
   -0.6165   -2.8788    0.0000 O   0  0  0  0  0  0  0  0  0  0  0  0
    0.1904   -3.0504    0.0000 C   0  0  0  0  0  0  0  0  0  0  0  0
    0.7425   -2.4373    0.0000 C   0  0  0  0  0  0  0  0  0  0  0  0
    0.4875   -1.6527    0.0000 N   0  0  0  0  0  0  0  0  0  0  0  0
    1.0396   -1.0396    0.0000 C   0  0  0  0  0  0  0  0  0  0  0  0
    1.8465   -1.2111    0.0000 O   0  0  0  0  0  0  0  0  0  0  0  0
    0.7846   -0.2549    0.0000 C   0  0  0  0  0  0  0  0  0  0  0  0
    0.0000   -0.0000    0.0000 C   0  0  0  0  0  0  0  0  0  0  0  0
   -0.6674   -0.4849    0.0000 C   0  0  0  0  0  0  0  0  0  0  0  0
   -0.5812   -1.3054    0.0000 O   0  0  0  0  0  0  0  0  0  0  0  0
   -1.4211   -0.1494    0.0000 C   0  0  2  0  0  0  0  0  0  0  0  0
   -1.5074    0.6711    0.0000 N   0  0  0  0  0  0  0  0  0  0  0  0
   -2.0886   -0.6343    0.0000 C   0  0  0  0  0  0  0  0  0  0  0  0
   -2.8422   -0.2987    0.0000 C   0  0  0  0  0  0  0  0  0  0  0  0
   -2.0023   -1.4548    0.0000 C   0  0  0  0  0  0  0  0  0  0  0  0
   -0.0000    0.8250    0.0000 C   0  0  0  0  0  0  0  0  0  0  0  0
   -0.6674    1.3099    0.0000 O   0  0  0  0  0  0  0  0  0  0  0  0
    0.7846    1.0799    0.0000 O   0  0  0  0  0  0  0  0  0  0  0  0
    1.2695    0.4125    0.0000 C   0  0  0  0  0  0  0  0  0  0  0  0
    1.6820    1.1270    0.0000 C   0  0  0  0  0  0  0  0  0  0  0  0
    2.5070    1.1270    0.0000 C   0  0  0  0  0  0  0  0  0  0  0  0
    2.9195    0.4125    0.0000 C   0  0  0  0  0  0  0  0  0  0  0  0
    2.5070   -0.3020    0.0000 C   0  0  0  0  0  0  0  0  0  0  0  0
    1.6820   -0.3020    0.0000 C   0  0  0  0  0  0  0  0  0  0  0  0
    1.5494   -2.6088    0.0000 C   0  0  0  0  0  0  0  0  0  0  0  0
    1.8044   -3.3934    0.0000 C   0  0  0  0  0  0  0  0  0  0  0  0
    1.2523   -4.0065    0.0000 C   0  0  0  0  0  0  0  0  0  0  0  0
    0.4454   -3.8350    0.0000 C   0  0  0  0  0  0  0  0  0  0  0  0
  1  2  1  0  0  0  0
  2  3  1  0  0  0  0
  3  4  2  0  0  0  0
  4  5  1  0  0  0  0
  5  6  1  0  0  0  0
  6  7  2  0  0  0  0
  6  8  1  0  0  0  0
  8  9  1  0  0  0  0
  9 10  1  0  0  0  0
 10 11  2  0  0  0  0
 12 10  1  0  0  0  0
 12 13  1  1  0  0  0
 12 14  1  0  0  0  0
 14 15  1  0  0  0  0
 14 16  1  0  0  0  0
  9 17  1  0  0  0  0
 17 18  2  0  0  0  0
 17 19  1  0  0  0  0
 19 20  1  0  0  0  0
  8 20  1  0  0  0  0
 20 21  1  0  0  0  0
 21 22  1  0  0  0  0
 22 23  1  0  0  0  0
 23 24  1  0  0  0  0
 24 25  1  0  0  0  0
 20 25  1  0  0  0  0
  4 26  1  0  0  0  0
 26 27  2  0  0  0  0
 27 28  1  0  0  0  0
 28 29  2  0  0  0  0
  3 29  1  0  0  0  0
M  END
> <ID>
CPD_3435

$$$$
CPD_3440
  Mrv1822 09091914012D          

 36 39  0  0  0  0            999 V2000
   -4.5221   -1.1883    0.0000 C   0  0  0  0  0  0  0  0  0  0  0  0
   -3.7684   -0.8528    0.0000 C   0  0  0  0  0  0  0  0  0  0  0  0
   -3.6821   -0.0323    0.0000 C   0  0  0  0  0  0  0  0  0  0  0  0
   -4.3496    0.4526    0.0000 O   0  0  0  0  0  0  0  0  0  0  0  0
   -2.9285    0.3032    0.0000 C   0  0  0  0  0  0  0  0  0  0  0  0
   -2.8422    1.1237    0.0000 C   0  0  0  0  0  0  0  0  0  0  0  0
   -3.5097    1.6087    0.0000 O   0  0  0  0  0  0  0  0  0  0  0  0
   -2.0886    1.4593    0.0000 C   0  0  0  0  0  0  0  0  0  0  0  0
   -1.4211    0.9744    0.0000 C   0  0  0  0  0  0  0  0  0  0  0  0
   -1.5074    0.1539    0.0000 C   0  0  0  0  0  0  0  0  0  0  0  0
   -2.2610   -0.1817    0.0000 C   0  0  0  0  0  0  0  0  0  0  0  0
   -2.3473   -1.0022    0.0000 O   0  0  0  0  0  0  0  0  0  0  0  0
   -0.6674    1.3099    0.0000 C   0  0  0  0  0  0  0  0  0  0  0  0
   -0.5812    2.1304    0.0000 O   0  0  0  0  0  0  0  0  0  0  0  0
    0.0000    0.8250    0.0000 C   0  0  0  0  0  0  0  0  0  0  0  0
    0.7846    1.0799    0.0000 C   0  0  0  0  0  0  0  0  0  0  0  0
    1.0396    1.8646    0.0000 C   0  0  0  0  0  0  0  0  0  0  0  0
    1.8465    2.0361    0.0000 O   0  0  0  0  0  0  0  0  0  0  0  0
    0.4875    2.4777    0.0000 N   0  0  0  0  0  0  0  0  0  0  0  0
    0.7425    3.2623    0.0000 C   0  0  0  0  0  0  0  0  0  0  0  0
    0.1904    3.8754    0.0000 C   0  0  0  0  0  0  0  0  0  0  0  0
   -0.6165    3.7038    0.0000 O   0  0  0  0  0  0  0  0  0  0  0  0
   -1.1686    4.3169    0.0000 C   0  0  0  0  0  0  0  0  0  0  0  0
    0.4454    4.6600    0.0000 C   0  0  0  0  0  0  0  0  0  0  0  0
    1.2523    4.8315    0.0000 C   0  0  0  0  0  0  0  0  0  0  0  0
    1.8044    4.2184    0.0000 C   0  0  0  0  0  0  0  0  0  0  0  0
    1.5494    3.4338    0.0000 C   0  0  0  0  0  0  0  0  0  0  0  0
    1.2695    0.4125    0.0000 C   0  0  0  0  0  0  0  0  0  0  0  0
    1.6820    1.1270    0.0000 C   0  0  0  0  0  0  0  0  0  0  0  0
    2.5070    1.1270    0.0000 C   0  0  0  0  0  0  0  0  0  0  0  0
    2.9195    0.4125    0.0000 C   0  0  0  0  0  0  0  0  0  0  0  0
    2.5070   -0.3020    0.0000 C   0  0  0  0  0  0  0  0  0  0  0  0
    1.6820   -0.3020    0.0000 C   0  0  0  0  0  0  0  0  0  0  0  0
    0.7846   -0.2549    0.0000 O   0  0  0  0  0  0  0  0  0  0  0  0
   -0.0000    0.0000    0.0000 C   0  0  0  0  0  0  0  0  0  0  0  0
   -0.6674   -0.4849    0.0000 O   0  0  0  0  0  0  0  0  0  0  0  0
  1  2  1  0  0  0  0
  2  3  1  0  0  0  0
  3  4  2  0  0  0  0
  3  5  1  0  0  0  0
  5  6  1  0  0  0  0
  6  7  2  0  0  0  0
  6  8  1  0  0  0  0
  8  9  1  0  0  0  0
  9 10  1  0  0  0  0
 10 11  1  0  0  0  0
  5 11  1  0  0  0  0
 11 12  2  0  0  0  0
  9 13  1  0  0  0  0
 13 14  2  0  0  0  0
 13 15  1  0  0  0  0
 15 16  1  0  0  0  0
 16 17  1  0  0  0  0
 17 18  2  0  0  0  0
 17 19  1  0  0  0  0
 19 20  1  0  0  0  0
 20 21  2  0  0  0  0
 21 22  1  0  0  0  0
 22 23  1  0  0  0  0
 21 24  1  0  0  0  0
 24 25  2  0  0  0  0
 25 26  1  0  0  0  0
 26 27  2  0  0  0  0
 20 27  1  0  0  0  0
 16 28  1  0  0  0  0
 28 29  1  0  0  0  0
 29 30  1  0  0  0  0
 30 31  1  0  0  0  0
 31 32  1  0  0  0  0
 32 33  1  0  0  0  0
 28 33  1  0  0  0  0
 28 34  1  0  0  0  0
 34 35  1  0  0  0  0
 15 35  1  0  0  0  0
 35 36  2  0  0  0  0
M  END
> <ID>
CPD_3440

$$$$
CPD_3445
  Mrv1822 09091914012D          

 38 42  0  0  0  0            999 V2000
   -1.1250    2.9306    0.0000 C   0  0  0  0  0  0  0  0  0  0  0  0
   -1.9319    2.7591    0.0000 O   0  0  0  0  0  0  0  0  0  0  0  0
   -2.4840    3.3722    0.0000 C   0  0  0  0  0  0  0  0  0  0  0  0
   -3.2909    3.2007    0.0000 C   0  0  0  0  0  0  0  0  0  0  0  0
   -3.5459    2.4160    0.0000 N   0  0  0  0  0  0  0  0  0  0  0  0
   -2.9938    1.8030    0.0000 C   0  0  0  0  0  0  0  0  0  0  0  0
   -2.1869    1.9745    0.0000 O   0  0  0  0  0  0  0  0  0  0  0  0
   -3.2488    1.0183    0.0000 C   0  0  0  0  0  0  0  0  0  0  0  0
   -4.0334    0.7634    0.0000 C   0  0  0  0  0  0  0  0  0  0  0  0
   -4.7008    1.2483    0.0000 C   0  0  0  0  0  0  0  0  0  0  0  0
   -4.6146    2.0688    0.0000 O   0  0  0  0  0  0  0  0  0  0  0  0
   -5.4545    0.9128    0.0000 C   0  0  0  0  0  0  0  0  0  0  0  0
   -6.1220    1.3977    0.0000 C   0  0  0  0  0  0  0  0  0  0  0  0
   -6.0357    2.2182    0.0000 C   0  0  0  0  0  0  0  0  0  0  0  0
   -6.7032    2.7031    0.0000 C   0  0  0  0  0  0  0  0  0  0  0  0
   -6.6169    3.5236    0.0000 O   0  0  0  0  0  0  0  0  0  0  0  0
   -7.4568    2.3675    0.0000 O   0  0  0  0  0  0  0  0  0  0  0  0
   -7.5431    1.5470    0.0000 C   0  0  0  0  0  0  0  0  0  0  0  0
   -6.8756    1.0621    0.0000 C   0  0  0  0  0  0  0  0  0  0  0  0
   -6.9619    0.2416    0.0000 C   0  0  0  0  0  0  0  0  0  0  0  0
   -6.2944   -0.2433    0.0000 O   0  0  0  0  0  0  0  0  0  0  0  0
   -7.7155   -0.0939    0.0000 C   0  0  0  0  0  0  0  0  0  0  0  0
   -8.3830    0.3910    0.0000 C   0  0  0  0  0  0  0  0  0  0  0  0
   -9.1367    0.0555    0.0000 O   0  0  0  0  0  0  0  0  0  0  0  0
   -8.2967    1.2115    0.0000 C   0  0  0  0  0  0  0  0  0  0  0  0
   -4.0334   -0.0616    0.0000 C   0  0  0  0  0  0  0  0  0  0  0  0
   -4.7008   -0.5465    0.0000 O   0  0  0  0  0  0  0  0  0  0  0  0
   -3.2488   -0.3165    0.0000 O   0  0  0  0  0  0  0  0  0  0  0  0
   -2.7639    0.3509    0.0000 C   0  0  0  0  0  0  0  0  0  0  0  0
   -2.3514   -0.3636    0.0000 C   0  0  0  0  0  0  0  0  0  0  0  0
   -1.5264   -0.3636    0.0000 C   0  0  0  0  0  0  0  0  0  0  0  0
   -1.1139    0.3509    0.0000 C   0  0  0  0  0  0  0  0  0  0  0  0
   -1.5264    1.0654    0.0000 C   0  0  0  0  0  0  0  0  0  0  0  0
   -2.3514    1.0654    0.0000 C   0  0  0  0  0  0  0  0  0  0  0  0
   -3.8430    3.8138    0.0000 C   0  0  0  0  0  0  0  0  0  0  0  0
   -3.5880    4.5984    0.0000 C   0  0  0  0  0  0  0  0  0  0  0  0
   -2.7811    4.7699    0.0000 C   0  0  0  0  0  0  0  0  0  0  0  0
   -2.2290    4.1568    0.0000 C   0  0  0  0  0  0  0  0  0  0  0  0
  1  2  1  0  0  0  0
  2  3  1  0  0  0  0
  3  4  2  0  0  0  0
  4  5  1  0  0  0  0
  5  6  1  0  0  0  0
  6  7  2  0  0  0  0
  6  8  1  0  0  0  0
  8  9  1  0  0  0  0
  9 10  1  0  0  0  0
 10 11  2  0  0  0  0
 10 12  1  0  0  0  0
 12 13  1  0  0  0  0
 13 14  2  0  0  0  0
 14 15  1  0  0  0  0
 15 16  2  0  0  0  0
 15 17  1  0  0  0  0
 17 18  1  0  0  0  0
 18 19  2  0  0  0  0
 13 19  1  0  0  0  0
 19 20  1  0  0  0  0
 20 21  1  0  0  0  0
 20 22  2  0  0  0  0
 22 23  1  0  0  0  0
 23 24  1  0  0  0  0
 23 25  2  0  0  0  0
 18 25  1  0  0  0  0
  9 26  1  0  0  0  0
 26 27  2  0  0  0  0
 26 28  1  0  0  0  0
 28 29  1  0  0  0  0
  8 29  1  0  0  0  0
 29 30  1  0  0  0  0
 30 31  1  0  0  0  0
 31 32  1  0  0  0  0
 32 33  1  0  0  0  0
 33 34  1  0  0  0  0
 29 34  1  0  0  0  0
  4 35  1  0  0  0  0
 35 36  2  0  0  0  0
 36 37  1  0  0  0  0
 37 38  2  0  0  0  0
  3 38  1  0  0  0  0
M  END
> <ID>
CPD_3445

$$$$
CPD_3450
  Mrv1822 09091914012D          

 27 28  0  0  0  0            999 V2000
    4.2059   -0.7441    0.0000 C   0  0  0  0  0  0  0  0  0  0  0  0
    3.7934   -1.4586    0.0000 C   0  0  0  0  0  0  0  0  0  0  0  0
    4.5079   -1.8711    0.0000 C   0  0  0  0  0  0  0  0  0  0  0  0
    3.0789   -1.0461    0.0000 N   0  0  0  0  0  0  0  0  0  0  0  0
    3.3809   -2.1730    0.0000 C   0  0  0  0  0  0  0  0  0  0  0  0
    2.5559   -2.1730    0.0000 C   0  0  0  0  0  0  0  0  0  0  0  0
    2.1434   -1.4586    0.0000 O   0  0  0  0  0  0  0  0  0  0  0  0
    2.1434   -2.8875    0.0000 C   0  0  0  0  0  0  0  0  0  0  0  0
    1.7309   -3.6020    0.0000 N   0  0  0  0  0  0  0  0  0  0  0  0
    2.8579   -3.3000    0.0000 C   0  0  0  0  0  0  0  0  0  0  0  0
    2.8579   -4.1250    0.0000 C   0  0  0  0  0  0  0  0  0  0  0  0
    3.5724   -4.5375    0.0000 C   0  0  0  0  0  0  0  0  0  0  0  0
    3.5724   -5.3625    0.0000 C   0  0  0  0  0  0  0  0  0  0  0  0
    2.8579   -5.7750    0.0000 C   0  0  0  0  0  0  0  0  0  0  0  0
    2.8579   -6.6000    0.0000 F   0  0  0  0  0  0  0  0  0  0  0  0
    2.1434   -5.3625    0.0000 C   0  0  0  0  0  0  0  0  0  0  0  0
    2.1434   -4.5375    0.0000 C   0  0  0  0  0  0  0  0  0  0  0  0
    1.4289   -2.4750    0.0000 C   0  0  0  0  0  0  0  0  0  0  0  0
    0.7145   -2.8875    0.0000 O   0  0  0  0  0  0  0  0  0  0  0  0
    1.4289   -1.6500    0.0000 O   0  0  0  0  0  0  0  0  0  0  0  0
    0.7145   -1.2375    0.0000 C   0  0  0  0  0  0  0  0  0  0  0  0
    0.7145   -0.4125    0.0000 C   0  0  0  0  0  0  0  0  0  0  0  0
    0.0000    0.0000    0.0000 C   0  0  0  0  0  0  0  0  0  0  0  0
    0.0000    0.8250    0.0000 C   0  0  0  0  0  0  0  0  0  0  0  0
    0.7145    1.2375    0.0000 C   0  0  0  0  0  0  0  0  0  0  0  0
    1.4289    0.8250    0.0000 C   0  0  0  0  0  0  0  0  0  0  0  0
    1.4289    0.0000    0.0000 C   0  0  0  0  0  0  0  0  0  0  0  0
  1  2  1  0  0  0  0
  2  3  1  0  0  0  0
  2  4  1  0  0  0  0
  2  5  1  0  0  0  0
  5  6  1  0  0  0  0
  6  7  2  0  0  0  0
  6  8  1  0  0  0  0
  8  9  1  0  0  0  0
  8 10  1  0  0  0  0
 10 11  1  0  0  0  0
 11 12  2  0  0  0  0
 12 13  1  0  0  0  0
 13 14  2  0  0  0  0
 14 15  1  0  0  0  0
 14 16  1  0  0  0  0
 16 17  2  0  0  0  0
 11 17  1  0  0  0  0
  8 18  1  0  0  0  0
 18 19  2  0  0  0  0
 18 20  1  0  0  0  0
 20 21  1  0  0  0  0
 21 22  1  0  0  0  0
 22 23  2  0  0  0  0
 23 24  1  0  0  0  0
 24 25  2  0  0  0  0
 25 26  1  0  0  0  0
 26 27  2  0  0  0  0
 22 27  1  0  0  0  0
M  END
> <ID>
CPD_3450

$$$$
CPD_3455
  Mrv1822 09091914012D          

 35 37  0  0  0  0            999 V2000
    3.0789   -0.8250    0.0000 N   0  0  0  0  0  0  0  0  0  0  0  0
    3.4914   -0.1105    0.0000 C   0  0  0  0  0  0  0  0  0  0  0  0
    4.2059   -0.5230    0.0000 C   0  0  0  0  0  0  0  0  0  0  0  0
    4.2059   -1.3480    0.0000 C   0  0  0  0  0  0  0  0  0  0  0  0
    4.9204   -1.7605    0.0000 C   0  0  0  0  0  0  0  0  0  0  0  0
    4.9204   -2.5855    0.0000 C   0  0  0  0  0  0  0  0  0  0  0  0
    4.2059   -2.9980    0.0000 C   0  0  0  0  0  0  0  0  0  0  0  0
    4.2059   -3.8230    0.0000 F   0  0  0  0  0  0  0  0  0  0  0  0
    3.4914   -2.5855    0.0000 C   0  0  0  0  0  0  0  0  0  0  0  0
    3.4914   -1.7605    0.0000 C   0  0  0  0  0  0  0  0  0  0  0  0
    2.7770    0.3020    0.0000 C   0  0  0  0  0  0  0  0  0  0  0  0
    2.7770    1.1270    0.0000 O   0  0  0  0  0  0  0  0  0  0  0  0
    2.0625   -0.1105    0.0000 C   0  0  0  0  0  0  0  0  0  0  0  0
    2.0625   -0.9355    0.0000 C   0  0  0  0  0  0  0  0  0  0  0  0
    1.3480   -1.3480    0.0000 N   0  0  0  0  0  0  0  0  0  0  0  0
    0.6336   -0.9355    0.0000 C   0  0  0  0  0  0  0  0  0  0  0  0
   -0.0809   -1.3480    0.0000 C   0  0  0  0  0  0  0  0  0  0  0  0
   -0.0809   -2.1730    0.0000 C   0  0  0  0  0  0  0  0  0  0  0  0
    0.6336   -2.5855    0.0000 C   0  0  0  0  0  0  0  0  0  0  0  0
    1.3480   -2.1730    0.0000 C   0  0  0  0  0  0  0  0  0  0  0  0
    2.0625   -2.5855    0.0000 O   0  0  0  0  0  0  0  0  0  0  0  0
   -0.7954   -0.9355    0.0000 C   0  0  0  0  0  0  0  0  0  0  0  0
   -1.5099   -0.5230    0.0000 F   0  0  0  0  0  0  0  0  0  0  0  0
   -1.2079   -1.6500    0.0000 F   0  0  0  0  0  0  0  0  0  0  0  0
   -0.3829   -0.2211    0.0000 F   0  0  0  0  0  0  0  0  0  0  0  0
    3.9039    0.6039    0.0000 C   0  0  0  0  0  0  0  0  0  0  0  0
    3.4914    1.3184    0.0000 O   0  0  0  0  0  0  0  0  0  0  0  0
    4.7289    0.6039    0.0000 O   0  0  0  0  0  0  0  0  0  0  0  0
    5.1414    1.3184    0.0000 C   0  0  0  0  0  0  0  0  0  0  0  0
    5.9664    1.3184    0.0000 C   0  0  0  0  0  0  0  0  0  0  0  0
    6.3789    2.0329    0.0000 C   0  0  0  0  0  0  0  0  0  0  0  0
    7.2039    2.0329    0.0000 C   0  0  0  0  0  0  0  0  0  0  0  0
    7.6164    1.3184    0.0000 C   0  0  0  0  0  0  0  0  0  0  0  0
    7.2039    0.6039    0.0000 C   0  0  0  0  0  0  0  0  0  0  0  0
    6.3789    0.6039    0.0000 C   0  0  0  0  0  0  0  0  0  0  0  0
  1  2  1  0  0  0  0
  2  3  1  0  0  0  0
  3  4  1  0  0  0  0
  4  5  2  0  0  0  0
  5  6  1  0  0  0  0
  6  7  2  0  0  0  0
  7  8  1  0  0  0  0
  7  9  1  0  0  0  0
  9 10  2  0  0  0  0
  4 10  1  0  0  0  0
  2 11  1  0  0  0  0
 11 12  2  0  0  0  0
 11 13  1  0  0  0  0
 13 14  1  0  0  0  0
 14 15  1  0  0  0  0
 15 16  1  0  0  0  0
 16 17  2  0  0  0  0
 17 18  1  0  0  0  0
 18 19  2  0  0  0  0
 19 20  1  0  0  0  0
 15 20  1  0  0  0  0
 20 21  2  0  0  0  0
 17 22  1  0  0  0  0
 22 23  1  0  0  0  0
 22 24  1  0  0  0  0
 22 25  1  0  0  0  0
  2 26  1  0  0  0  0
 26 27  2  0  0  0  0
 26 28  1  0  0  0  0
 28 29  1  0  0  0  0
 29 30  1  0  0  0  0
 30 31  2  0  0  0  0
 31 32  1  0  0  0  0
 32 33  2  0  0  0  0
 33 34  1  0  0  0  0
 34 35  2  0  0  0  0
 30 35  1  0  0  0  0
M  END
> <ID>
CPD_3455

$$$$
CPD_3460
  Mrv1822 09091914012D          

 33 35  0  0  0  0            999 V2000
    1.6500   -3.6829    0.0000 C   0  0  0  0  0  0  0  0  0  0  0  0
    2.3645   -4.0954    0.0000 N   0  0  0  0  0  0  0  0  0  0  0  0
    3.0789   -3.6829    0.0000 C   0  0  0  0  0  0  0  0  0  0  0  0
    3.7934   -4.0954    0.0000 C   0  0  0  0  0  0  0  0  0  0  0  0
    3.7934   -4.9204    0.0000 C   0  0  0  0  0  0  0  0  0  0  0  0
    4.5079   -5.3329    0.0000 C   0  0  0  0  0  0  0  0  0  0  0  0
    4.5079   -6.1579    0.0000 C   0  0  0  0  0  0  0  0  0  0  0  0
    3.7934   -6.5704    0.0000 C   0  0  0  0  0  0  0  0  0  0  0  0
    3.7934   -7.3954    0.0000 O   0  0  0  0  0  0  0  0  0  0  0  0
    3.0789   -6.1579    0.0000 C   0  0  0  0  0  0  0  0  0  0  0  0
    3.0789   -5.3329    0.0000 C   0  0  0  0  0  0  0  0  0  0  0  0
    3.0789   -2.8579    0.0000 C   0  0  0  0  0  0  0  0  0  0  0  0
    2.3645   -2.4454    0.0000 O   0  0  0  0  0  0  0  0  0  0  0  0
    3.7934   -2.4454    0.0000 C   0  0  0  0  0  0  0  0  0  0  0  0
    4.2059   -3.1599    0.0000 N   0  0  0  0  0  0  0  0  0  0  0  0
    4.5079   -2.0329    0.0000 C   0  0  0  0  0  0  0  0  0  0  0  0
    5.2224   -2.4454    0.0000 C   0  0  0  0  0  0  0  0  0  0  0  0
    5.9368   -2.0329    0.0000 C   0  0  0  0  0  0  0  0  0  0  0  0
    6.6513   -2.4454    0.0000 C   0  0  0  0  0  0  0  0  0  0  0  0
    6.6513   -3.2704    0.0000 C   0  0  0  0  0  0  0  0  0  0  0  0
    7.3658   -3.6829    0.0000 F   0  0  0  0  0  0  0  0  0  0  0  0
    5.9368   -3.6829    0.0000 C   0  0  0  0  0  0  0  0  0  0  0  0
    5.2224   -3.2704    0.0000 C   0  0  0  0  0  0  0  0  0  0  0  0
    3.3809   -1.7309    0.0000 C   0  0  0  0  0  0  0  0  0  0  0  0
    2.5559   -1.7309    0.0000 O   0  0  0  0  0  0  0  0  0  0  0  0
    3.7934   -1.0164    0.0000 O   0  0  0  0  0  0  0  0  0  0  0  0
    3.3809   -0.3020    0.0000 C   0  0  0  0  0  0  0  0  0  0  0  0
    3.7934    0.4125    0.0000 C   0  0  0  0  0  0  0  0  0  0  0  0
    3.3809    1.1270    0.0000 C   0  0  0  0  0  0  0  0  0  0  0  0
    3.7934    1.8414    0.0000 C   0  0  0  0  0  0  0  0  0  0  0  0
    4.6184    1.8414    0.0000 C   0  0  0  0  0  0  0  0  0  0  0  0
    5.0309    1.1270    0.0000 C   0  0  0  0  0  0  0  0  0  0  0  0
    4.6184    0.4125    0.0000 C   0  0  0  0  0  0  0  0  0  0  0  0
  1  2  1  0  0  0  0
  2  3  1  0  0  0  0
  3  4  1  0  0  0  0
  4  5  1  0  0  0  0
  5  6  2  0  0  0  0
  6  7  1  0  0  0  0
  7  8  2  0  0  0  0
  8  9  1  0  0  0  0
  8 10  1  0  0  0  0
 10 11  2  0  0  0  0
  5 11  1  0  0  0  0
  3 12  1  0  0  0  0
 12 13  2  0  0  0  0
 12 14  1  0  0  0  0
 14 15  1  0  0  0  0
 14 16  1  0  0  0  0
 16 17  1  0  0  0  0
 17 18  2  0  0  0  0
 18 19  1  0  0  0  0
 19 20  2  0  0  0  0
 20 21  1  0  0  0  0
 20 22  1  0  0  0  0
 22 23  2  0  0  0  0
 17 23  1  0  0  0  0
 14 24  1  0  0  0  0
 24 25  2  0  0  0  0
 24 26  1  0  0  0  0
 26 27  1  0  0  0  0
 27 28  1  0  0  0  0
 28 29  2  0  0  0  0
 29 30  1  0  0  0  0
 30 31  2  0  0  0  0
 31 32  1  0  0  0  0
 32 33  2  0  0  0  0
 28 33  1  0  0  0  0
M  END
> <ID>
CPD_3460

$$$$
CPD_3465
  Mrv1822 09091914012D          

 27 30  0  0  0  0            999 V2000
    3.4990    1.1104    0.0000 C   0  0  0  0  0  0  0  0  0  0  0  0
    2.7845    0.6979    0.0000 O   0  0  0  0  0  0  0  0  0  0  0  0
    2.0701    1.1104    0.0000 C   0  0  0  0  0  0  0  0  0  0  0  0
    1.3556    0.6979    0.0000 C   0  0  0  0  0  0  0  0  0  0  0  0
    0.6411    1.1104    0.0000 C   0  0  0  0  0  0  0  0  0  0  0  0
    0.6411    1.9354    0.0000 C   0  0  0  0  0  0  0  0  0  0  0  0
   -0.1435    2.1904    0.0000 S   0  0  0  0  0  0  0  0  0  0  0  0
   -0.6284    1.5229    0.0000 C   0  0  0  0  0  0  0  0  0  0  0  0
   -0.1435    0.8555    0.0000 C   0  0  0  0  0  0  0  0  0  0  0  0
   -0.3984    0.0709    0.0000 C   0  0  0  0  0  0  0  0  0  0  0  0
    0.0865   -0.5966    0.0000 C   0  0  0  0  0  0  0  0  0  0  0  0
   -0.3984   -1.2640    0.0000 N   0  0  0  0  0  0  0  0  0  0  0  0
   -0.1435   -2.0486    0.0000 C   0  0  0  0  0  0  0  0  0  0  0  0
   -0.6955   -2.6617    0.0000 C   0  0  0  0  0  0  0  0  0  0  0  0
   -0.4406   -3.4463    0.0000 C   0  0  0  0  0  0  0  0  0  0  0  0
   -0.9926   -4.0594    0.0000 C   0  0  0  0  0  0  0  0  0  0  0  0
   -1.7996   -3.8879    0.0000 C   0  0  0  0  0  0  0  0  0  0  0  0
   -2.0545   -3.1033    0.0000 C   0  0  0  0  0  0  0  0  0  0  0  0
   -1.5025   -2.4902    0.0000 C   0  0  0  0  0  0  0  0  0  0  0  0
   -1.1831   -1.0091    0.0000 N   0  0  0  0  0  0  0  0  0  0  0  0
   -1.1831   -0.1841    0.0000 C   0  0  0  0  0  0  0  0  0  0  0  0
   -1.8505    0.3009    0.0000 C   0  0  0  0  0  0  0  0  0  0  0  0
    0.9115   -0.5966    0.0000 C   0  0  0  0  0  0  0  0  0  0  0  0
    1.3240   -1.3110    0.0000 N   0  0  0  0  0  0  0  0  0  0  0  0
    1.3240    0.1179    0.0000 O   0  0  0  0  0  0  0  0  0  0  0  0
    1.3556    2.3479    0.0000 C   0  0  0  0  0  0  0  0  0  0  0  0
    2.0701    1.9354    0.0000 C   0  0  0  0  0  0  0  0  0  0  0  0
  1  2  1  0  0  0  0
  2  3  1  0  0  0  0
  3  4  2  0  0  0  0
  4  5  1  0  0  0  0
  5  6  2  0  0  0  0
  6  7  1  0  0  0  0
  7  8  1  0  0  0  0
  8  9  2  0  0  0  0
  5  9  1  0  0  0  0
  9 10  1  0  0  0  0
 10 11  2  0  0  0  0
 11 12  1  0  0  0  0
 12 13  1  0  0  0  0
 13 14  1  0  0  0  0
 14 15  2  0  0  0  0
 15 16  1  0  0  0  0
 16 17  2  0  0  0  0
 17 18  1  0  0  0  0
 18 19  2  0  0  0  0
 14 19  1  0  0  0  0
 12 20  1  0  0  0  0
 20 21  2  0  0  0  0
 10 21  1  0  0  0  0
 21 22  1  0  0  0  0
 11 23  1  0  0  0  0
 23 24  1  0  0  0  0
 23 25  2  0  0  0  0
  6 26  1  0  0  0  0
 26 27  2  0  0  0  0
  3 27  1  0  0  0  0
M  END
> <ID>
CPD_3465

$$$$
CPD_3470
  Mrv1822 09091914012D          

 24 27  0  0  0  0            999 V2000
    0.5080    3.6159    0.0000 C   0  0  0  0  0  0  0  0  0  0  0  0
    0.7629    2.8313    0.0000 O   0  0  0  0  0  0  0  0  0  0  0  0
    0.2109    2.2182    0.0000 C   0  0  0  0  0  0  0  0  0  0  0  0
    0.4658    1.4336    0.0000 C   0  0  0  0  0  0  0  0  0  0  0  0
   -0.0862    0.8205    0.0000 C   0  0  0  0  0  0  0  0  0  0  0  0
   -0.8932    0.9920    0.0000 C   0  0  0  0  0  0  0  0  0  0  0  0
   -1.3057    0.2775    0.0000 S   0  0  0  0  0  0  0  0  0  0  0  0
   -0.7537   -0.3356    0.0000 C   0  0  0  0  0  0  0  0  0  0  0  0
    0.0000    0.0000    0.0000 C   0  0  0  0  0  0  0  0  0  0  0  0
    0.7145   -0.4125    0.0000 C   0  0  0  0  0  0  0  0  0  0  0  0
    1.4289    0.0000    0.0000 C   0  0  0  0  0  0  0  0  0  0  0  0
    1.4289    0.8250    0.0000 Br  0  0  0  0  0  0  0  0  0  0  0  0
    2.1434   -0.4125    0.0000 C   0  0  0  0  0  0  0  0  0  0  0  0
    2.8579    0.0000    0.0000 C   0  0  0  0  0  0  0  0  0  0  0  0
    2.8579    0.8250    0.0000 F   0  0  0  0  0  0  0  0  0  0  0  0
    3.5724   -0.4125    0.0000 C   0  0  0  0  0  0  0  0  0  0  0  0
    3.5724   -1.2375    0.0000 C   0  0  0  0  0  0  0  0  0  0  0  0
    4.2868   -1.6500    0.0000 F   0  0  0  0  0  0  0  0  0  0  0  0
    2.8579   -1.6500    0.0000 C   0  0  0  0  0  0  0  0  0  0  0  0
    2.1434   -1.2375    0.0000 C   0  0  0  0  0  0  0  0  0  0  0  0
    1.4289   -1.6500    0.0000 N   0  0  0  0  0  0  0  0  0  0  0  0
    0.7145   -1.2375    0.0000 C   0  0  0  0  0  0  0  0  0  0  0  0
   -1.1481    1.7766    0.0000 C   0  0  0  0  0  0  0  0  0  0  0  0
   -0.5961    2.3897    0.0000 C   0  0  0  0  0  0  0  0  0  0  0  0
  1  2  1  0  0  0  0
  2  3  1  0  0  0  0
  3  4  2  0  0  0  0
  4  5  1  0  0  0  0
  5  6  2  0  0  0  0
  6  7  1  0  0  0  0
  7  8  1  0  0  0  0
  8  9  2  0  0  0  0
  5  9  1  0  0  0  0
  9 10  1  0  0  0  0
 10 11  2  0  0  0  0
 11 12  1  0  0  0  0
 11 13  1  0  0  0  0
 13 14  2  0  0  0  0
 14 15  1  0  0  0  0
 14 16  1  0  0  0  0
 16 17  2  0  0  0  0
 17 18  1  0  0  0  0
 17 19  1  0  0  0  0
 19 20  2  0  0  0  0
 13 20  1  0  0  0  0
 20 21  1  0  0  0  0
 21 22  2  0  0  0  0
 10 22  1  0  0  0  0
  6 23  1  0  0  0  0
 23 24  2  0  0  0  0
  3 24  1  0  0  0  0
M  END
> <ID>
CPD_3470

$$$$
CPD_3475
  Mrv1822 09091914012D          

 34 37  0  0  0  0            999 V2000
    6.4302    2.8875    0.0000 C   0  0  0  0  0  0  0  0  0  0  0  0
    7.1447    2.4750    0.0000 O   0  0  0  0  0  0  0  0  0  0  0  0
    7.1447    1.6500    0.0000 C   0  0  0  0  0  0  0  0  0  0  0  0
    7.8592    1.2375    0.0000 C   0  0  0  0  0  0  0  0  0  0  0  0
    7.8592    0.4125    0.0000 C   0  0  0  0  0  0  0  0  0  0  0  0
    7.1447    0.0000    0.0000 C   0  0  0  0  0  0  0  0  0  0  0  0
    7.1447   -0.8250    0.0000 N   0  0  0  0  0  0  0  0  0  0  0  0
    7.8592   -1.2375    0.0000 C   0  0  0  0  0  0  0  0  0  0  0  0
    8.5737   -0.8250    0.0000 O   0  0  0  0  0  0  0  0  0  0  0  0
    7.8592   -2.0625    0.0000 C   0  0  0  0  0  0  0  0  0  0  0  0
    8.5737   -2.4750    0.0000 C   0  0  0  0  0  0  0  0  0  0  0  0
    8.5737   -3.3000    0.0000 C   0  0  0  0  0  0  0  0  0  0  0  0
    7.8592   -3.7125    0.0000 C   0  0  0  0  0  0  0  0  0  0  0  0
    7.1447   -3.3000    0.0000 C   0  0  0  0  0  0  0  0  0  0  0  0
    7.1447   -2.4750    0.0000 C   0  0  0  0  0  0  0  0  0  0  0  0
    7.8592   -4.5375    0.0000 C   0  0  0  0  0  0  0  0  0  0  0  0
    8.5737   -4.9500    0.0000 C   0  0  0  0  0  0  0  0  0  0  0  0
    8.5737   -5.7750    0.0000 C   0  0  0  0  0  0  0  0  0  0  0  0
    7.8592   -6.1875    0.0000 C   0  0  0  0  0  0  0  0  0  0  0  0
    7.1447   -5.7750    0.0000 C   0  0  0  0  0  0  0  0  0  0  0  0
    6.4302   -6.1875    0.0000 N   0  0  0  0  0  0  0  0  0  0  0  0
    5.7158   -5.7750    0.0000 S   0  0  0  0  0  0  0  0  0  0  0  0
    6.1283   -5.0605    0.0000 O   0  0  0  0  0  0  0  0  0  0  0  0
    5.3033   -6.4895    0.0000 O   0  0  0  0  0  0  0  0  0  0  0  0
    5.0013   -5.3625    0.0000 C   0  0  0  0  0  0  0  0  0  0  0  0
    4.2868   -5.7750    0.0000 C   0  0  0  0  0  0  0  0  0  0  0  0
    3.5724   -5.3625    0.0000 C   0  0  0  0  0  0  0  0  0  0  0  0
    3.5724   -4.5375    0.0000 C   0  0  0  0  0  0  0  0  0  0  0  0
    4.2868   -4.1250    0.0000 C   0  0  0  0  0  0  0  0  0  0  0  0
    5.0013   -4.5375    0.0000 C   0  0  0  0  0  0  0  0  0  0  0  0
    7.1447   -4.9500    0.0000 C   0  0  0  0  0  0  0  0  0  0  0  0
    6.4302   -4.5375    0.0000 C   0  0  0  0  0  0  0  0  0  0  0  0
    6.4302    0.4125    0.0000 C   0  0  0  0  0  0  0  0  0  0  0  0
    6.4302    1.2375    0.0000 C   0  0  0  0  0  0  0  0  0  0  0  0
  1  2  1  0  0  0  0
  2  3  1  0  0  0  0
  3  4  2  0  0  0  0
  4  5  1  0  0  0  0
  5  6  2  0  0  0  0
  6  7  1  0  0  0  0
  7  8  1  0  0  0  0
  8  9  2  0  0  0  0
  8 10  1  0  0  0  0
 10 11  2  0  0  0  0
 11 12  1  0  0  0  0
 12 13  2  0  0  0  0
 13 14  1  0  0  0  0
 14 15  2  0  0  0  0
 10 15  1  0  0  0  0
 13 16  1  0  0  0  0
 16 17  2  0  0  0  0
 17 18  1  0  0  0  0
 18 19  2  0  0  0  0
 19 20  1  0  0  0  0
 20 21  1  0  0  0  0
 21 22  1  0  0  0  0
 22 23  2  0  0  0  0
 22 24  2  0  0  0  0
 22 25  1  0  0  0  0
 25 26  2  0  0  0  0
 26 27  1  0  0  0  0
 27 28  2  0  0  0  0
 28 29  1  0  0  0  0
 29 30  2  0  0  0  0
 25 30  1  0  0  0  0
 20 31  2  0  0  0  0
 16 31  1  0  0  0  0
 31 32  1  0  0  0  0
  6 33  1  0  0  0  0
 33 34  2  0  0  0  0
  3 34  1  0  0  0  0
M  END
> <ID>
CPD_3475

$$$$
CPD_3480
  Mrv1822 09091914012D          

 27 30  0  0  0  0            999 V2000
    2.2428   -2.5916    0.0000 C   0  0  0  0  0  0  0  0  0  0  0  0
    1.4358   -2.7631    0.0000 C   0  0  0  0  0  0  0  0  0  0  0  0
    1.1809   -3.5477    0.0000 C   0  0  0  0  0  0  0  0  0  0  0  0
    1.7329   -4.1608    0.0000 N   0  0  0  0  0  0  0  0  0  0  0  0
    1.4780   -4.9454    0.0000 S   0  0  0  0  0  0  0  0  0  0  0  0
    2.2626   -5.2004    0.0000 O   0  0  0  0  0  0  0  0  0  0  0  0
    0.6933   -4.6905    0.0000 O   0  0  0  0  0  0  0  0  0  0  0  0
    1.2230   -5.7301    0.0000 C   0  0  0  0  0  0  0  0  0  0  0  0
    1.7751   -6.3432    0.0000 C   0  0  0  0  0  0  0  0  0  0  0  0
    1.5201   -7.1278    0.0000 C   0  0  0  0  0  0  0  0  0  0  0  0
    0.7132   -7.2993    0.0000 C   0  0  0  0  0  0  0  0  0  0  0  0
    0.1611   -6.6862    0.0000 C   0  0  0  0  0  0  0  0  0  0  0  0
    0.4161   -5.9016    0.0000 C   0  0  0  0  0  0  0  0  0  0  0  0
    0.3739   -3.7192    0.0000 C   0  0  0  0  0  0  0  0  0  0  0  0
   -0.1781   -3.1062    0.0000 C   0  0  0  0  0  0  0  0  0  0  0  0
    0.0768   -2.3215    0.0000 C   0  0  0  0  0  0  0  0  0  0  0  0
    0.8838   -2.1500    0.0000 C   0  0  0  0  0  0  0  0  0  0  0  0
    1.1387   -1.3654    0.0000 C   0  0  0  0  0  0  0  0  0  0  0  0
    0.6538   -0.6979    0.0000 C   0  0  0  0  0  0  0  0  0  0  0  0
    1.1387   -0.0305    0.0000 N   0  0  0  0  0  0  0  0  0  0  0  0
    1.9233   -0.2854    0.0000 C   0  0  0  0  0  0  0  0  0  0  0  0
    2.6378    0.1271    0.0000 C   0  0  0  0  0  0  0  0  0  0  0  0
    3.3523   -0.2854    0.0000 C   0  0  0  0  0  0  0  0  0  0  0  0
    3.3523   -1.1104    0.0000 C   0  0  0  0  0  0  0  0  0  0  0  0
    4.0668   -1.5229    0.0000 Cl  0  0  0  0  0  0  0  0  0  0  0  0
    2.6378   -1.5229    0.0000 C   0  0  0  0  0  0  0  0  0  0  0  0
    1.9233   -1.1104    0.0000 N   0  0  0  0  0  0  0  0  0  0  0  0
  1  2  1  0  0  0  0
  2  3  2  0  0  0  0
  3  4  1  0  0  0  0
  4  5  1  0  0  0  0
  5  6  2  0  0  0  0
  5  7  2  0  0  0  0
  5  8  1  0  0  0  0
  8  9  2  0  0  0  0
  9 10  1  0  0  0  0
 10 11  2  0  0  0  0
 11 12  1  0  0  0  0
 12 13  2  0  0  0  0
  8 13  1  0  0  0  0
  3 14  1  0  0  0  0
 14 15  2  0  0  0  0
 15 16  1  0  0  0  0
 16 17  2  0  0  0  0
  2 17  1  0  0  0  0
 17 18  1  0  0  0  0
 18 19  2  0  0  0  0
 19 20  1  0  0  0  0
 20 21  2  0  0  0  0
 21 22  1  0  0  0  0
 22 23  2  0  0  0  0
 23 24  1  0  0  0  0
 24 25  1  0  0  0  0
 24 26  2  0  0  0  0
 26 27  1  0  0  0  0
 18 27  1  0  0  0  0
 21 27  1  0  0  0  0
M  END
> <ID>
CPD_3480

$$$$
CPD_3485
  Mrv1822 09091914012D          

 27 29  0  0  0  0            999 V2000
    3.5724    1.2375    0.0000 C   0  0  0  0  0  0  0  0  0  0  0  0
    3.5724    0.4125    0.0000 O   0  0  0  0  0  0  0  0  0  0  0  0
    4.2868    0.0000    0.0000 C   0  0  0  0  0  0  0  0  0  0  0  0
    5.0013    0.4125    0.0000 O   0  0  0  0  0  0  0  0  0  0  0  0
    4.2868   -0.8250    0.0000 C   0  0  0  0  0  0  0  0  0  0  0  0
    5.0013   -1.2375    0.0000 C   0  0  0  0  0  0  0  0  0  0  0  0
    5.0013   -2.0625    0.0000 N   0  0  0  0  0  0  0  0  0  0  0  0
    4.2868   -2.4750    0.0000 C   0  0  0  0  0  0  0  0  0  0  0  0
    3.5724   -2.0625    0.0000 C   0  0  0  0  0  0  0  0  0  0  0  0
    3.5724   -1.2375    0.0000 C   0  0  0  0  0  0  0  0  0  0  0  0
    5.7158   -0.8250    0.0000 C   0  0  0  0  0  0  0  0  0  0  0  0
    5.7158    0.0000    0.0000 C   0  0  0  0  0  0  0  0  0  0  0  0
    6.4302    0.4125    0.0000 C   0  0  0  0  0  0  0  0  0  0  0  0
    7.1447   -0.0000    0.0000 C   0  0  0  0  0  0  0  0  0  0  0  0
    7.1447   -0.8250    0.0000 C   0  0  0  0  0  0  0  0  0  0  0  0
    7.8592   -1.2375    0.0000 N   0  0  0  0  0  0  0  0  0  0  0  0
    7.8592   -2.0625    0.0000 S   0  0  0  0  0  0  0  0  0  0  0  0
    7.0342   -2.0625    0.0000 O   0  0  0  0  0  0  0  0  0  0  0  0
    8.6842   -2.0625    0.0000 O   0  0  0  0  0  0  0  0  0  0  0  0
    7.8592   -2.8875    0.0000 C   0  0  0  0  0  0  0  0  0  0  0  0
    8.5737   -3.3000    0.0000 C   0  0  0  0  0  0  0  0  0  0  0  0
    8.5737   -4.1250    0.0000 C   0  0  0  0  0  0  0  0  0  0  0  0
    7.8592   -4.5375    0.0000 C   0  0  0  0  0  0  0  0  0  0  0  0
    7.1447   -4.1250    0.0000 C   0  0  0  0  0  0  0  0  0  0  0  0
    7.1447   -3.3000    0.0000 C   0  0  0  0  0  0  0  0  0  0  0  0
    6.4302   -1.2375    0.0000 C   0  0  0  0  0  0  0  0  0  0  0  0
    6.4302   -2.0625    0.0000 C   0  0  0  0  0  0  0  0  0  0  0  0
  1  2  1  0  0  0  0
  2  3  1  0  0  0  0
  3  4  2  0  0  0  0
  3  5  1  0  0  0  0
  5  6  2  0  0  0  0
  6  7  1  0  0  0  0
  7  8  2  0  0  0  0
  8  9  1  0  0  0  0
  9 10  2  0  0  0  0
  5 10  1  0  0  0  0
  6 11  1  0  0  0  0
 11 12  2  0  0  0  0
 12 13  1  0  0  0  0
 13 14  2  0  0  0  0
 14 15  1  0  0  0  0
 15 16  1  0  0  0  0
 16 17  1  0  0  0  0
 17 18  2  0  0  0  0
 17 19  2  0  0  0  0
 17 20  1  0  0  0  0
 20 21  2  0  0  0  0
 21 22  1  0  0  0  0
 22 23  2  0  0  0  0
 23 24  1  0  0  0  0
 24 25  2  0  0  0  0
 20 25  1  0  0  0  0
 15 26  2  0  0  0  0
 11 26  1  0  0  0  0
 26 27  1  0  0  0  0
M  END
> <ID>
CPD_3485

$$$$
CPD_3490
  Mrv1822 09091914012D          

 31 34  0  0  0  0            999 V2000
    1.0164   -2.3645    0.0000 C   0  0  0  0  0  0  0  0  0  0  0  0
    1.4289   -1.6500    0.0000 S   0  0  0  0  0  0  0  0  0  0  0  0
    1.8414   -0.9355    0.0000 O   0  0  0  0  0  0  0  0  0  0  0  0
    2.1434   -2.0625    0.0000 O   0  0  0  0  0  0  0  0  0  0  0  0
    0.7145   -1.2375    0.0000 N   0  0  0  0  0  0  0  0  0  0  0  0
    0.0000   -1.6500    0.0000 C   0  0  0  0  0  0  0  0  0  0  0  0
    0.0000   -2.4750    0.0000 C   0  0  0  0  0  0  0  0  0  0  0  0
    0.7145   -2.8875    0.0000 C   0  0  0  0  0  0  0  0  0  0  0  0
    0.7145   -3.7125    0.0000 C   0  0  0  0  0  0  0  0  0  0  0  0
    0.0000   -4.1250    0.0000 C   0  0  0  0  0  0  0  0  0  0  0  0
   -0.7145   -3.7125    0.0000 C   0  0  0  0  0  0  0  0  0  0  0  0
   -0.7145   -2.8875    0.0000 C   0  0  0  0  0  0  0  0  0  0  0  0
    0.0000   -4.9500    0.0000 C   0  0  0  0  0  0  0  0  0  0  0  0
    0.7145   -5.3625    0.0000 C   0  0  0  0  0  0  0  0  0  0  0  0
    0.7145   -6.1875    0.0000 C   0  0  0  0  0  0  0  0  0  0  0  0
   -0.0000   -6.6000    0.0000 C   0  0  0  0  0  0  0  0  0  0  0  0
   -0.7145   -6.1875    0.0000 C   0  0  0  0  0  0  0  0  0  0  0  0
   -0.7145   -5.3625    0.0000 N   0  0  0  0  0  0  0  0  0  0  0  0
    1.4289   -6.6000    0.0000 N   0  0  0  0  0  0  0  0  0  0  0  0
    2.1434   -6.1875    0.0000 C   0  0  0  0  0  0  0  0  0  0  0  0
    2.8579   -6.6000    0.0000 C   0  0  0  0  0  0  0  0  0  0  0  0
    2.8579   -7.4250    0.0000 O   0  0  0  0  0  0  0  0  0  0  0  0
    2.1434   -7.8375    0.0000 C   0  0  0  0  0  0  0  0  0  0  0  0
    1.4289   -7.4250    0.0000 C   0  0  0  0  0  0  0  0  0  0  0  0
    0.7145   -0.4125    0.0000 C   0  0  0  0  0  0  0  0  0  0  0  0
    0.0000    0.0000    0.0000 C   0  0  0  0  0  0  0  0  0  0  0  0
   -0.7145   -0.4125    0.0000 F   0  0  0  0  0  0  0  0  0  0  0  0
    0.0000    0.8250    0.0000 C   0  0  0  0  0  0  0  0  0  0  0  0
    0.7145    1.2375    0.0000 C   0  0  0  0  0  0  0  0  0  0  0  0
    1.4289    0.8250    0.0000 C   0  0  0  0  0  0  0  0  0  0  0  0
    1.4289   -0.0000    0.0000 C   0  0  0  0  0  0  0  0  0  0  0  0
  1  2  1  0  0  0  0
  2  3  2  0  0  0  0
  2  4  2  0  0  0  0
  2  5  1  0  0  0  0
  5  6  1  0  0  0  0
  6  7  1  0  0  0  0
  7  8  2  0  0  0  0
  8  9  1  0  0  0  0
  9 10  2  0  0  0  0
 10 11  1  0  0  0  0
 11 12  2  0  0  0  0
  7 12  1  0  0  0  0
 10 13  1  0  0  0  0
 13 14  2  0  0  0  0
 14 15  1  0  0  0  0
 15 16  2  0  0  0  0
 16 17  1  0  0  0  0
 17 18  2  0  0  0  0
 13 18  1  0  0  0  0
 15 19  1  0  0  0  0
 19 20  1  0  0  0  0
 20 21  1  0  0  0  0
 21 22  1  0  0  0  0
 22 23  1  0  0  0  0
 23 24  1  0  0  0  0
 19 24  1  0  0  0  0
  5 25  1  0  0  0  0
 25 26  2  0  0  0  0
 26 27  1  0  0  0  0
 26 28  1  0  0  0  0
 28 29  2  0  0  0  0
 29 30  1  0  0  0  0
 30 31  2  0  0  0  0
 25 31  1  0  0  0  0
M  END
> <ID>
CPD_3490

$$$$
CPD_3495
  Mrv1822 09091914012D          

 31 34  0  0  0  0            999 V2000
   -2.6909    0.0165    0.0000 C   0  0  0  0  0  0  0  0  0  0  0  0
   -1.8659    0.0165    0.0000 N   0  0  0  0  0  0  0  0  0  0  0  0
   -1.4534   -0.6979    0.0000 C   0  0  0  0  0  0  0  0  0  0  0  0
   -0.6284   -0.6979    0.0000 C   0  0  0  0  0  0  0  0  0  0  0  0
   -0.1435   -1.3654    0.0000 C   0  0  0  0  0  0  0  0  0  0  0  0
    0.6411   -1.1104    0.0000 C   0  0  0  0  0  0  0  0  0  0  0  0
    0.6411   -0.2854    0.0000 C   0  0  0  0  0  0  0  0  0  0  0  0
   -0.1435   -0.0305    0.0000 N   0  0  0  0  0  0  0  0  0  0  0  0
    1.3556    0.1271    0.0000 C   0  0  0  0  0  0  0  0  0  0  0  0
    2.0701   -0.2854    0.0000 C   0  0  0  0  0  0  0  0  0  0  0  0
    2.0701   -1.1104    0.0000 C   0  0  0  0  0  0  0  0  0  0  0  0
    1.3556   -1.5229    0.0000 C   0  0  0  0  0  0  0  0  0  0  0  0
    2.7845   -1.5229    0.0000 C   0  0  0  0  0  0  0  0  0  0  0  0
    3.4990   -1.1104    0.0000 C   0  0  0  0  0  0  0  0  0  0  0  0
    4.2135   -1.5229    0.0000 C   0  0  0  0  0  0  0  0  0  0  0  0
    4.2135   -2.3479    0.0000 C   0  0  0  0  0  0  0  0  0  0  0  0
    4.9279   -2.7604    0.0000 C   0  0  0  0  0  0  0  0  0  0  0  0
    5.6424   -2.3479    0.0000 N   0  0  0  0  0  0  0  0  0  0  0  0
    6.3569   -2.7604    0.0000 C   0  0  0  0  0  0  0  0  0  0  0  0
    7.0714   -2.3479    0.0000 C   0  0  0  0  0  0  0  0  0  0  0  0
    7.0714   -1.5229    0.0000 F   0  0  0  0  0  0  0  0  0  0  0  0
    7.7858   -2.7604    0.0000 C   0  0  0  0  0  0  0  0  0  0  0  0
    7.7858   -3.5854    0.0000 C   0  0  0  0  0  0  0  0  0  0  0  0
    7.0714   -3.9979    0.0000 C   0  0  0  0  0  0  0  0  0  0  0  0
    6.3569   -3.5854    0.0000 C   0  0  0  0  0  0  0  0  0  0  0  0
    5.6424   -1.5229    0.0000 S   0  0  0  0  0  0  0  0  0  0  0  0
    5.6424   -0.6979    0.0000 C   0  0  0  0  0  0  0  0  0  0  0  0
    6.4674   -1.5229    0.0000 O   0  0  0  0  0  0  0  0  0  0  0  0
    4.8174   -1.5229    0.0000 O   0  0  0  0  0  0  0  0  0  0  0  0
    3.4990   -2.7604    0.0000 C   0  0  0  0  0  0  0  0  0  0  0  0
    2.7845   -2.3479    0.0000 C   0  0  0  0  0  0  0  0  0  0  0  0
  1  2  1  0  0  0  0
  2  3  1  0  0  0  0
  3  4  1  0  0  0  0
  4  5  2  0  0  0  0
  5  6  1  0  0  0  0
  6  7  2  0  0  0  0
  7  8  1  0  0  0  0
  4  8  1  0  0  0  0
  7  9  1  0  0  0  0
  9 10  2  0  0  0  0
 10 11  1  0  0  0  0
 11 12  2  0  0  0  0
  6 12  1  0  0  0  0
 11 13  1  0  0  0  0
 13 14  2  0  0  0  0
 14 15  1  0  0  0  0
 15 16  2  0  0  0  0
 16 17  1  0  0  0  0
 17 18  1  0  0  0  0
 18 19  1  0  0  0  0
 19 20  2  0  0  0  0
 20 21  1  0  0  0  0
 20 22  1  0  0  0  0
 22 23  2  0  0  0  0
 23 24  1  0  0  0  0
 24 25  2  0  0  0  0
 19 25  1  0  0  0  0
 18 26  1  0  0  0  0
 26 27  1  0  0  0  0
 26 28  2  0  0  0  0
 26 29  2  0  0  0  0
 16 30  1  0  0  0  0
 30 31  2  0  0  0  0
 13 31  1  0  0  0  0
M  END
> <ID>
CPD_3495

$$$$
CPD_3500
  Mrv1822 09091914012D          

 29 32  0  0  0  0            999 V2000
    6.7694    0.1749    0.0000 C   0  0  0  0  0  0  0  0  0  0  0  0
    6.3569   -0.5396    0.0000 S   0  0  0  0  0  0  0  0  0  0  0  0
    7.0714   -0.9521    0.0000 O   0  0  0  0  0  0  0  0  0  0  0  0
    5.9444   -1.2540    0.0000 O   0  0  0  0  0  0  0  0  0  0  0  0
    5.6424   -0.1271    0.0000 N   0  0  0  0  0  0  0  0  0  0  0  0
    4.9279   -0.5396    0.0000 C   0  0  0  0  0  0  0  0  0  0  0  0
    4.2135   -0.1271    0.0000 C   0  0  0  0  0  0  0  0  0  0  0  0
    3.4990   -0.5396    0.0000 C   0  0  0  0  0  0  0  0  0  0  0  0
    2.7845   -0.1271    0.0000 C   0  0  0  0  0  0  0  0  0  0  0  0
    2.7845    0.6979    0.0000 C   0  0  0  0  0  0  0  0  0  0  0  0
    3.4990    1.1104    0.0000 C   0  0  0  0  0  0  0  0  0  0  0  0
    4.2135    0.6979    0.0000 C   0  0  0  0  0  0  0  0  0  0  0  0
    2.0701    1.1104    0.0000 C   0  0  0  0  0  0  0  0  0  0  0  0
    1.3556    0.6979    0.0000 C   0  0  0  0  0  0  0  0  0  0  0  0
    0.6411    1.1104    0.0000 C   0  0  0  0  0  0  0  0  0  0  0  0
    0.6411    1.9354    0.0000 C   0  0  0  0  0  0  0  0  0  0  0  0
   -0.1435    2.1904    0.0000 C   0  0  0  0  0  0  0  0  0  0  0  0
   -0.6284    1.5229    0.0000 N   0  0  0  0  0  0  0  0  0  0  0  0
   -0.1435    0.8555    0.0000 N   0  0  0  0  0  0  0  0  0  0  0  0
    1.3556    2.3479    0.0000 C   0  0  0  0  0  0  0  0  0  0  0  0
    2.0701    1.9354    0.0000 C   0  0  0  0  0  0  0  0  0  0  0  0
    2.7845    2.3479    0.0000 F   0  0  0  0  0  0  0  0  0  0  0  0
    5.6424    0.6979    0.0000 C   0  0  0  0  0  0  0  0  0  0  0  0
    6.3569    1.1104    0.0000 C   0  0  0  0  0  0  0  0  0  0  0  0
    7.0714    0.6979    0.0000 F   0  0  0  0  0  0  0  0  0  0  0  0
    6.3569    1.9354    0.0000 C   0  0  0  0  0  0  0  0  0  0  0  0
    5.6424    2.3479    0.0000 C   0  0  0  0  0  0  0  0  0  0  0  0
    4.9279    1.9354    0.0000 C   0  0  0  0  0  0  0  0  0  0  0  0
    4.9279    1.1104    0.0000 C   0  0  0  0  0  0  0  0  0  0  0  0
  1  2  1  0  0  0  0
  2  3  2  0  0  0  0
  2  4  2  0  0  0  0
  2  5  1  0  0  0  0
  5  6  1  0  0  0  0
  6  7  1  0  0  0  0
  7  8  2  0  0  0  0
  8  9  1  0  0  0  0
  9 10  2  0  0  0  0
 10 11  1  0  0  0  0
 11 12  2  0  0  0  0
  7 12  1  0  0  0  0
 10 13  1  0  0  0  0
 13 14  2  0  0  0  0
 14 15  1  0  0  0  0
 15 16  2  0  0  0  0
 16 17  1  0  0  0  0
 17 18  2  0  0  0  0
 18 19  1  0  0  0  0
 15 19  1  0  0  0  0
 16 20  1  0  0  0  0
 20 21  2  0  0  0  0
 13 21  1  0  0  0  0
 21 22  1  0  0  0  0
  5 23  1  0  0  0  0
 23 24  2  0  0  0  0
 24 25  1  0  0  0  0
 24 26  1  0  0  0  0
 26 27  2  0  0  0  0
 27 28  1  0  0  0  0
 28 29  2  0  0  0  0
 23 29  1  0  0  0  0
M  END
> <ID>
CPD_3500

$$$$
CPD_3505
  Mrv1822 09091914012D          

 30 32  0  0  0  0            999 V2000
    7.6391    1.9354    0.0000 C   0  0  0  0  0  0  0  0  0  0  0  0
    6.9246    2.3479    0.0000 C   0  0  0  0  0  0  0  0  0  0  0  0
    6.2102    1.9354    0.0000 C   0  0  0  0  0  0  0  0  0  0  0  0
    6.2102    1.1104    0.0000 O   0  0  0  0  0  0  0  0  0  0  0  0
    5.4957    2.3479    0.0000 C   0  0  0  0  0  0  0  0  0  0  0  0
    4.7812    1.9354    0.0000 C   0  0  0  0  0  0  0  0  0  0  0  0
    4.0668    2.3479    0.0000 C   0  0  0  0  0  0  0  0  0  0  0  0
    4.0668    3.1729    0.0000 C   0  0  0  0  0  0  0  0  0  0  0  0
    4.7812    3.5854    0.0000 C   0  0  0  0  0  0  0  0  0  0  0  0
    5.4957    3.1729    0.0000 C   0  0  0  0  0  0  0  0  0  0  0  0
    6.2102    3.5854    0.0000 O   0  0  0  0  0  0  0  0  0  0  0  0
    3.3523    1.9354    0.0000 C   0  0  0  0  0  0  0  0  0  0  0  0
    3.3523    1.1104    0.0000 C   0  0  0  0  0  0  0  0  0  0  0  0
    2.6378    0.6979    0.0000 C   0  0  0  0  0  0  0  0  0  0  0  0
    1.9233    1.1104    0.0000 C   0  0  0  0  0  0  0  0  0  0  0  0
    1.1387    0.8555    0.0000 N   0  0  0  0  0  0  0  0  0  0  0  0
    0.8838    0.0709    0.0000 C   0  0  0  0  0  0  0  0  0  0  0  0
    1.4358   -0.5422    0.0000 C   0  0  0  0  0  0  0  0  0  0  0  0
    1.1809   -1.3268    0.0000 N   0  0  0  0  0  0  0  0  0  0  0  0
    1.7329   -1.9399    0.0000 C   0  0  0  0  0  0  0  0  0  0  0  0
    2.5399   -1.7684    0.0000 O   0  0  0  0  0  0  0  0  0  0  0  0
    1.4780   -2.7246    0.0000 O   0  0  0  0  0  0  0  0  0  0  0  0
    2.0300   -3.3376    0.0000 C   0  0  0  0  0  0  0  0  0  0  0  0
    2.5820   -3.9507    0.0000 C   0  0  0  0  0  0  0  0  0  0  0  0
    1.4169   -3.8897    0.0000 C   0  0  0  0  0  0  0  0  0  0  0  0
    2.6431   -2.7856    0.0000 C   0  0  0  0  0  0  0  0  0  0  0  0
    0.6538    1.5229    0.0000 C   0  0  0  0  0  0  0  0  0  0  0  0
    1.1387    2.1904    0.0000 N   0  0  0  0  0  0  0  0  0  0  0  0
    1.9233    1.9354    0.0000 C   0  0  0  0  0  0  0  0  0  0  0  0
    2.6378    2.3479    0.0000 C   0  0  0  0  0  0  0  0  0  0  0  0
  1  2  1  0  0  0  0
  2  3  1  0  0  0  0
  3  4  2  0  0  0  0
  3  5  1  0  0  0  0
  5  6  2  0  0  0  0
  6  7  1  0  0  0  0
  7  8  2  0  0  0  0
  8  9  1  0  0  0  0
  9 10  2  0  0  0  0
  5 10  1  0  0  0  0
 10 11  1  0  0  0  0
  7 12  1  0  0  0  0
 12 13  2  0  0  0  0
 13 14  1  0  0  0  0
 14 15  2  0  0  0  0
 15 16  1  0  0  0  0
 16 17  1  0  0  0  0
 17 18  1  0  0  0  0
 18 19  1  0  0  0  0
 19 20  1  0  0  0  0
 20 21  2  0  0  0  0
 20 22  1  0  0  0  0
 22 23  1  0  0  0  0
 23 24  1  0  0  0  0
 23 25  1  0  0  0  0
 23 26  1  0  0  0  0
 16 27  1  0  0  0  0
 27 28  2  0  0  0  0
 28 29  1  0  0  0  0
 15 29  1  0  0  0  0
 29 30  2  0  0  0  0
 12 30  1  0  0  0  0
M  END
> <ID>
CPD_3505

$$$$
CPD_3510
  Mrv1822 09091914012D          

 30 32  0  0  0  0            999 V2000
   -2.8540   -4.4054    0.0000 C   0  0  0  0  0  0  0  0  0  0  0  0
   -2.0470   -4.2338    0.0000 C   0  0  0  0  0  0  0  0  0  0  0  0
   -1.8755   -5.0408    0.0000 C   0  0  0  0  0  0  0  0  0  0  0  0
   -2.2185   -3.4269    0.0000 C   0  0  0  0  0  0  0  0  0  0  0  0
   -1.2400   -4.0623    0.0000 O   0  0  0  0  0  0  0  0  0  0  0  0
   -0.9851   -3.2777    0.0000 C   0  0  0  0  0  0  0  0  0  0  0  0
   -1.5371   -2.6646    0.0000 O   0  0  0  0  0  0  0  0  0  0  0  0
   -0.1781   -3.1062    0.0000 N   0  0  0  0  0  0  0  0  0  0  0  0
    0.0768   -2.3215    0.0000 C   0  0  0  0  0  0  0  0  0  0  0  0
    0.8838   -2.1500    0.0000 C   0  0  0  0  0  0  0  0  0  0  0  0
    1.1387   -1.3654    0.0000 N   0  0  0  0  0  0  0  0  0  0  0  0
    0.6538   -0.6979    0.0000 C   0  0  0  0  0  0  0  0  0  0  0  0
    1.1387   -0.0305    0.0000 N   0  0  0  0  0  0  0  0  0  0  0  0
    1.9233   -0.2854    0.0000 C   0  0  0  0  0  0  0  0  0  0  0  0
    2.6378    0.1271    0.0000 C   0  0  0  0  0  0  0  0  0  0  0  0
    3.3523   -0.2854    0.0000 C   0  0  0  0  0  0  0  0  0  0  0  0
    3.3523   -1.1104    0.0000 C   0  0  0  0  0  0  0  0  0  0  0  0
    2.6378   -1.5229    0.0000 C   0  0  0  0  0  0  0  0  0  0  0  0
    1.9233   -1.1104    0.0000 C   0  0  0  0  0  0  0  0  0  0  0  0
    4.0668    0.1271    0.0000 C   0  0  0  0  0  0  0  0  0  0  0  0
    4.0668    0.9521    0.0000 C   0  0  0  0  0  0  0  0  0  0  0  0
    4.7812    1.3646    0.0000 C   0  0  0  0  0  0  0  0  0  0  0  0
    4.7812    2.1896    0.0000 F   0  0  0  0  0  0  0  0  0  0  0  0
    5.4957    0.9521    0.0000 C   0  0  0  0  0  0  0  0  0  0  0  0
    6.2102    1.3646    0.0000 N   0  0  0  0  0  0  0  0  0  0  0  0
    6.9246    0.9521    0.0000 C   0  0  0  0  0  0  0  0  0  0  0  0
    7.6391    1.3646    0.0000 N   0  0  0  0  0  0  0  0  0  0  0  0
    6.9246    0.1271    0.0000 O   0  0  0  0  0  0  0  0  0  0  0  0
    5.4957    0.1271    0.0000 C   0  0  0  0  0  0  0  0  0  0  0  0
    4.7812   -0.2854    0.0000 C   0  0  0  0  0  0  0  0  0  0  0  0
  1  2  1  0  0  0  0
  2  3  1  0  0  0  0
  2  4  1  0  0  0  0
  2  5  1  0  0  0  0
  5  6  1  0  0  0  0
  6  7  2  0  0  0  0
  6  8  1  0  0  0  0
  8  9  1  0  0  0  0
  9 10  1  0  0  0  0
 10 11  1  0  0  0  0
 11 12  1  0  0  0  0
 12 13  2  0  0  0  0
 13 14  1  0  0  0  0
 14 15  2  0  0  0  0
 15 16  1  0  0  0  0
 16 17  2  0  0  0  0
 17 18  1  0  0  0  0
 18 19  2  0  0  0  0
 11 19  1  0  0  0  0
 14 19  1  0  0  0  0
 16 20  1  0  0  0  0
 20 21  2  0  0  0  0
 21 22  1  0  0  0  0
 22 23  1  0  0  0  0
 22 24  2  0  0  0  0
 24 25  1  0  0  0  0
 25 26  1  0  0  0  0
 26 27  1  0  0  0  0
 26 28  2  0  0  0  0
 24 29  1  0  0  0  0
 29 30  2  0  0  0  0
 20 30  1  0  0  0  0
M  END
> <ID>
CPD_3510

$$$$
CPD_3515
  Mrv1822 09091914012D          

 34 37  0  0  0  0            999 V2000
   -2.8540   -4.4054    0.0000 C   0  0  0  0  0  0  0  0  0  0  0  0
   -2.0470   -4.2338    0.0000 C   0  0  0  0  0  0  0  0  0  0  0  0
   -1.8755   -5.0408    0.0000 C   0  0  0  0  0  0  0  0  0  0  0  0
   -2.2185   -3.4269    0.0000 C   0  0  0  0  0  0  0  0  0  0  0  0
   -1.2400   -4.0623    0.0000 O   0  0  0  0  0  0  0  0  0  0  0  0
   -0.9851   -3.2777    0.0000 C   0  0  0  0  0  0  0  0  0  0  0  0
   -1.5371   -2.6646    0.0000 O   0  0  0  0  0  0  0  0  0  0  0  0
   -0.1781   -3.1062    0.0000 N   0  0  0  0  0  0  0  0  0  0  0  0
    0.0768   -2.3215    0.0000 C   0  0  0  0  0  0  0  0  0  0  0  0
    0.8838   -2.1500    0.0000 C   0  0  0  0  0  0  0  0  0  0  0  0
    1.1387   -1.3654    0.0000 N   0  0  0  0  0  0  0  0  0  0  0  0
    0.6538   -0.6979    0.0000 C   0  0  0  0  0  0  0  0  0  0  0  0
    1.1387   -0.0305    0.0000 N   0  0  0  0  0  0  0  0  0  0  0  0
    1.9233   -0.2854    0.0000 C   0  0  0  0  0  0  0  0  0  0  0  0
    2.6378    0.1271    0.0000 C   0  0  0  0  0  0  0  0  0  0  0  0
    3.3523   -0.2854    0.0000 C   0  0  0  0  0  0  0  0  0  0  0  0
    3.3523   -1.1104    0.0000 C   0  0  0  0  0  0  0  0  0  0  0  0
    2.6378   -1.5229    0.0000 C   0  0  0  0  0  0  0  0  0  0  0  0
    1.9233   -1.1104    0.0000 C   0  0  0  0  0  0  0  0  0  0  0  0
    4.0668    0.1271    0.0000 C   0  0  0  0  0  0  0  0  0  0  0  0
    4.0668    0.9521    0.0000 C   0  0  0  0  0  0  0  0  0  0  0  0
    4.7812    1.3646    0.0000 C   0  0  0  0  0  0  0  0  0  0  0  0
    5.4957    0.9521    0.0000 C   0  0  0  0  0  0  0  0  0  0  0  0
    6.2102    1.3646    0.0000 C   0  0  0  0  0  0  0  0  0  0  0  0
    6.2102    2.1896    0.0000 N   0  0  0  0  0  0  0  0  0  0  0  0
    5.5427    2.6745    0.0000 C   0  0  0  0  0  0  0  0  0  0  0  0
    5.7977    3.4591    0.0000 C   0  0  0  0  0  0  0  0  0  0  0  0
    6.6227    3.4591    0.0000 C   0  0  0  0  0  0  0  0  0  0  0  0
    6.8776    2.6745    0.0000 C   0  0  0  0  0  0  0  0  0  0  0  0
    7.6622    2.4195    0.0000 C   0  0  0  0  0  0  0  0  0  0  0  0
    8.2753    2.9716    0.0000 O   0  0  0  0  0  0  0  0  0  0  0  0
    7.8338    1.6126    0.0000 O   0  0  0  0  0  0  0  0  0  0  0  0
    5.4957    0.1271    0.0000 C   0  0  0  0  0  0  0  0  0  0  0  0
    4.7812   -0.2854    0.0000 C   0  0  0  0  0  0  0  0  0  0  0  0
  1  2  1  0  0  0  0
  2  3  1  0  0  0  0
  2  4  1  0  0  0  0
  2  5  1  0  0  0  0
  5  6  1  0  0  0  0
  6  7  2  0  0  0  0
  6  8  1  0  0  0  0
  8  9  1  0  0  0  0
  9 10  1  0  0  0  0
 10 11  1  0  0  0  0
 11 12  1  0  0  0  0
 12 13  2  0  0  0  0
 13 14  1  0  0  0  0
 14 15  2  0  0  0  0
 15 16  1  0  0  0  0
 16 17  2  0  0  0  0
 17 18  1  0  0  0  0
 18 19  2  0  0  0  0
 11 19  1  0  0  0  0
 14 19  1  0  0  0  0
 16 20  1  0  0  0  0
 20 21  2  0  0  0  0
 21 22  1  0  0  0  0
 22 23  2  0  0  0  0
 23 24  1  0  0  0  0
 24 25  1  0  0  0  0
 25 26  1  0  0  0  0
 26 27  1  0  0  0  0
 27 28  1  0  0  0  0
 28 29  1  0  0  0  0
 25 29  1  0  0  0  0
 29 30  1  0  0  0  0
 30 31  1  0  0  0  0
 30 32  2  0  0  0  0
 23 33  1  0  0  0  0
 33 34  2  0  0  0  0
 20 34  1  0  0  0  0
M  END
> <ID>
CPD_3515

$$$$
CPD_3520
  Mrv1822 09091914012D          

 25 28  0  0  0  0            999 V2000
    4.2868    2.4750    0.0000 C   0  0  0  0  0  0  0  0  0  0  0  0
    3.5724    2.0625    0.0000 O   0  0  0  0  0  0  0  0  0  0  0  0
    3.5724    1.2375    0.0000 C   0  0  0  0  0  0  0  0  0  0  0  0
    2.8579    0.8250    0.0000 C   0  0  0  0  0  0  0  0  0  0  0  0
    2.8579    0.0000    0.0000 C   0  0  0  0  0  0  0  0  0  0  0  0
    3.5724   -0.4125    0.0000 C   0  0  0  0  0  0  0  0  0  0  0  0
    3.5724   -1.2375    0.0000 C   0  0  0  0  0  0  0  0  0  0  0  0
    4.2868   -1.6500    0.0000 C   0  0  0  0  0  0  0  0  0  0  0  0
    4.2868   -2.4750    0.0000 C   0  0  0  0  0  0  0  0  0  0  0  0
    5.0013   -2.8875    0.0000 C   0  0  0  0  0  0  0  0  0  0  0  0
    3.5724   -2.8875    0.0000 N   0  0  0  0  0  0  0  0  0  0  0  0
    2.8579   -2.4750    0.0000 C   0  0  0  0  0  0  0  0  0  0  0  0
    2.1434   -2.8875    0.0000 C   0  0  0  0  0  0  0  0  0  0  0  0
    1.4289   -2.4750    0.0000 C   0  0  0  0  0  0  0  0  0  0  0  0
    0.7145   -2.8875    0.0000 Cl  0  0  0  0  0  0  0  0  0  0  0  0
    1.4289   -1.6500    0.0000 C   0  0  0  0  0  0  0  0  0  0  0  0
    0.7145   -1.2375    0.0000 F   0  0  0  0  0  0  0  0  0  0  0  0
    2.1434   -1.2375    0.0000 C   0  0  0  0  0  0  0  0  0  0  0  0
    2.8579   -1.6500    0.0000 C   0  0  0  0  0  0  0  0  0  0  0  0
    4.2868    0.0000    0.0000 C   0  0  0  0  0  0  0  0  0  0  0  0
    4.2868    0.8250    0.0000 C   0  0  0  0  0  0  0  0  0  0  0  0
    5.0013    1.2375    0.0000 N   0  0  0  0  0  0  0  0  0  0  0  0
    5.7158    0.8250    0.0000 C   0  0  0  0  0  0  0  0  0  0  0  0
    5.7158    0.0000    0.0000 C   0  0  0  0  0  0  0  0  0  0  0  0
    5.0013   -0.4125    0.0000 C   0  0  0  0  0  0  0  0  0  0  0  0
  1  2  1  0  0  0  0
  2  3  1  0  0  0  0
  3  4  2  0  0  0  0
  4  5  1  0  0  0  0
  5  6  2  0  0  0  0
  6  7  1  0  0  0  0
  7  8  2  0  0  0  0
  8  9  1  0  0  0  0
  9 10  1  0  0  0  0
  9 11  2  0  0  0  0
 11 12  1  0  0  0  0
 12 13  2  0  0  0  0
 13 14  1  0  0  0  0
 14 15  1  0  0  0  0
 14 16  2  0  0  0  0
 16 17  1  0  0  0  0
 16 18  1  0  0  0  0
 18 19  2  0  0  0  0
  7 19  1  0  0  0  0
 12 19  1  0  0  0  0
  6 20  1  0  0  0  0
 20 21  2  0  0  0  0
  3 21  1  0  0  0  0
 21 22  1  0  0  0  0
 22 23  2  0  0  0  0
 23 24  1  0  0  0  0
 24 25  2  0  0  0  0
 20 25  1  0  0  0  0
M  END
> <ID>
CPD_3520

$$$$
CPD_3525
  Mrv1822 09091914012D          

 36 39  0  0  0  0            999 V2000
    7.1447    3.3000    0.0000 C   0  0  0  0  0  0  0  0  0  0  0  0
    7.1447    2.4750    0.0000 C   0  0  0  0  0  0  0  0  0  0  0  0
    7.8592    2.0625    0.0000 C   0  0  0  0  0  0  0  0  0  0  0  0
    7.8592    1.2375    0.0000 C   0  0  0  0  0  0  0  0  0  0  0  0
    7.1447    0.8250    0.0000 C   0  0  0  0  0  0  0  0  0  0  0  0
    6.4302    1.2375    0.0000 C   0  0  0  0  0  0  0  0  0  0  0  0
    6.4302    2.0625    0.0000 C   0  0  0  0  0  0  0  0  0  0  0  0
    5.7158    2.4750    0.0000 C   0  0  0  0  0  0  0  0  0  0  0  0
    5.0013    2.0625    0.0000 N   0  0  0  0  0  0  0  0  0  0  0  0
    4.2868    2.4750    0.0000 C   0  0  0  0  0  0  0  0  0  0  0  0
    3.5724    2.0625    0.0000 C   0  0  0  0  0  0  0  0  0  0  0  0
    2.8579    2.4750    0.0000 C   0  0  0  0  0  0  0  0  0  0  0  0
    2.8579    3.3000    0.0000 C   0  0  0  0  0  0  0  0  0  0  0  0
    3.5724    3.7125    0.0000 C   0  0  0  0  0  0  0  0  0  0  0  0
    4.2868    3.3000    0.0000 C   0  0  0  0  0  0  0  0  0  0  0  0
    2.1434    3.7125    0.0000 C   0  0  0  0  0  0  0  0  0  0  0  0
    1.4289    3.3000    0.0000 C   0  0  0  0  0  0  0  0  0  0  0  0
    0.7145    3.7125    0.0000 C   0  0  0  0  0  0  0  0  0  0  0  0
    0.7145    4.5375    0.0000 C   0  0  0  0  0  0  0  0  0  0  0  0
    1.4289    4.9500    0.0000 N   0  0  0  0  0  0  0  0  0  0  0  0
    1.4289    5.7750    0.0000 C   0  0  0  0  0  0  0  0  0  0  0  0
    2.1434    6.1875    0.0000 C   0  0  0  0  0  0  0  0  0  0  0  0
    2.1434    7.0125    0.0000 C   0  0  0  0  0  0  0  0  0  0  0  0
    2.8579    7.4250    0.0000 C   0  0  0  0  0  0  0  0  0  0  0  0
    3.5724    7.0125    0.0000 C   0  0  0  0  0  0  0  0  0  0  0  0
    3.5724    6.1875    0.0000 C   0  0  0  0  0  0  0  0  0  0  0  0
    2.8579    5.7750    0.0000 C   0  0  0  0  0  0  0  0  0  0  0  0
    2.1434    4.5375    0.0000 C   0  0  0  0  0  0  0  0  0  0  0  0
    2.8579    4.9500    0.0000 O   0  0  0  0  0  0  0  0  0  0  0  0
   -0.0000    3.3000    0.0000 C   0  0  0  0  0  0  0  0  0  0  0  0
   -0.7145    3.7125    0.0000 O   0  0  0  0  0  0  0  0  0  0  0  0
   -0.0000    2.4750    0.0000 O   0  0  0  0  0  0  0  0  0  0  0  0
    5.0013    1.2375    0.0000 S   0  0  0  0  0  0  0  0  0  0  0  0
    5.0013    0.4125    0.0000 C   0  0  0  0  0  0  0  0  0  0  0  0
    4.1763    1.2375    0.0000 O   0  0  0  0  0  0  0  0  0  0  0  0
    5.8263    1.2375    0.0000 O   0  0  0  0  0  0  0  0  0  0  0  0
  1  2  1  0  0  0  0
  2  3  2  0  0  0  0
  3  4  1  0  0  0  0
  4  5  2  0  0  0  0
  5  6  1  0  0  0  0
  6  7  2  0  0  0  0
  2  7  1  0  0  0  0
  7  8  1  0  0  0  0
  8  9  1  0  0  0  0
  9 10  1  0  0  0  0
 10 11  2  0  0  0  0
 11 12  1  0  0  0  0
 12 13  2  0  0  0  0
 13 14  1  0  0  0  0
 14 15  2  0  0  0  0
 10 15  1  0  0  0  0
 13 16  1  0  0  0  0
 16 17  2  0  0  0  0
 17 18  1  0  0  0  0
 18 19  2  0  0  0  0
 19 20  1  0  0  0  0
 20 21  1  0  0  0  0
 21 22  1  0  0  0  0
 22 23  2  0  0  0  0
 23 24  1  0  0  0  0
 24 25  2  0  0  0  0
 25 26  1  0  0  0  0
 26 27  2  0  0  0  0
 22 27  1  0  0  0  0
 20 28  1  0  0  0  0
 16 28  1  0  0  0  0
 28 29  2  0  0  0  0
 18 30  1  0  0  0  0
 30 31  1  0  0  0  0
 30 32  2  0  0  0  0
  9 33  1  0  0  0  0
 33 34  1  0  0  0  0
 33 35  2  0  0  0  0
 33 36  2  0  0  0  0
M  END
> <ID>
CPD_3525

$$$$
CPD_3530
  Mrv1822 09091914012D          

 30 32  0  0  0  0            999 V2000
   -1.4289   -2.4750    0.0000 C   0  0  0  0  0  0  0  0  0  0  0  0
   -0.7145   -2.8875    0.0000 C   0  0  0  0  0  0  0  0  0  0  0  0
   -0.7145   -3.7125    0.0000 N   0  0  0  0  0  0  0  0  0  0  0  0
    0.0000   -4.1250    0.0000 C   0  0  0  0  0  0  0  0  0  0  0  0
    0.7145   -3.7125    0.0000 O   0  0  0  0  0  0  0  0  0  0  0  0
    0.0000   -4.9500    0.0000 C   0  0  0  0  0  0  0  0  0  0  0  0
    0.7145   -5.3625    0.0000 C   0  0  0  0  0  0  0  0  0  0  0  0
    0.7145   -6.1875    0.0000 C   0  0  0  0  0  0  0  0  0  0  0  0
    0.0000   -6.6000    0.0000 C   0  0  0  0  0  0  0  0  0  0  0  0
   -0.7145   -6.1875    0.0000 C   0  0  0  0  0  0  0  0  0  0  0  0
   -0.7145   -5.3625    0.0000 C   0  0  0  0  0  0  0  0  0  0  0  0
    0.0000   -7.4250    0.0000 C   0  0  0  0  0  0  0  0  0  0  0  0
    0.7145   -7.8375    0.0000 C   0  0  0  0  0  0  0  0  0  0  0  0
    0.7145   -8.6625    0.0000 C   0  0  0  0  0  0  0  0  0  0  0  0
    0.0000   -9.0750    0.0000 C   0  0  0  0  0  0  0  0  0  0  0  0
   -0.7145   -8.6625    0.0000 C   0  0  0  0  0  0  0  0  0  0  0  0
   -0.7145   -7.8375    0.0000 C   0  0  0  0  0  0  0  0  0  0  0  0
    0.0000   -9.9000    0.0000 N   0  0  0  0  0  0  0  0  0  0  0  0
   -0.7145  -10.3125    0.0000 C   0  0  0  0  0  0  0  0  0  0  0  0
   -0.7145  -11.1375    0.0000 C   0  0  0  0  0  0  0  0  0  0  0  0
   -0.0000  -11.5500    0.0000 C   0  0  0  0  0  0  0  0  0  0  0  0
   -0.0000  -12.3750    0.0000 C   0  0  0  0  0  0  0  0  0  0  0  0
   -0.7145  -12.7875    0.0000 C   0  0  0  0  0  0  0  0  0  0  0  0
   -1.4289  -12.3750    0.0000 C   0  0  0  0  0  0  0  0  0  0  0  0
   -1.4289  -11.5500    0.0000 C   0  0  0  0  0  0  0  0  0  0  0  0
   -2.1434  -11.1375    0.0000 C   0  0  0  0  0  0  0  0  0  0  0  0
    0.7145  -10.3125    0.0000 S   0  0  0  0  0  0  0  0  0  0  0  0
    0.3020  -11.0270    0.0000 C   0  0  0  0  0  0  0  0  0  0  0  0
    1.4289  -10.7250    0.0000 O   0  0  0  0  0  0  0  0  0  0  0  0
    1.1270   -9.5980    0.0000 O   0  0  0  0  0  0  0  0  0  0  0  0
  1  2  1  0  0  0  0
  2  3  1  0  0  0  0
  3  4  1  0  0  0  0
  4  5  2  0  0  0  0
  4  6  1  0  0  0  0
  6  7  2  0  0  0  0
  7  8  1  0  0  0  0
  8  9  2  0  0  0  0
  9 10  1  0  0  0  0
 10 11  2  0  0  0  0
  6 11  1  0  0  0  0
  9 12  1  0  0  0  0
 12 13  2  0  0  0  0
 13 14  1  0  0  0  0
 14 15  2  0  0  0  0
 15 16  1  0  0  0  0
 16 17  2  0  0  0  0
 12 17  1  0  0  0  0
 15 18  1  0  0  0  0
 18 19  1  0  0  0  0
 19 20  1  0  0  0  0
 20 21  2  0  0  0  0
 21 22  1  0  0  0  0
 22 23  2  0  0  0  0
 23 24  1  0  0  0  0
 24 25  2  0  0  0  0
 20 25  1  0  0  0  0
 25 26  1  0  0  0  0
 18 27  1  0  0  0  0
 27 28  1  0  0  0  0
 27 29  2  0  0  0  0
 27 30  2  0  0  0  0
M  END
> <ID>
CPD_3530

$$$$
CPD_3535
  Mrv1822 09091914012D          

 30 33  0  0  0  0            999 V2000
   -1.4289    3.3000    0.0000 C   0  0  0  0  0  0  0  0  0  0  0  0
   -0.7145    3.7125    0.0000 C   0  0  0  0  0  0  0  0  0  0  0  0
   -0.7145    4.5375    0.0000 C   0  0  0  0  0  0  0  0  0  0  0  0
    0.0000    4.9500    0.0000 C   0  0  0  0  0  0  0  0  0  0  0  0
    0.7145    4.5375    0.0000 C   0  0  0  0  0  0  0  0  0  0  0  0
    0.7145    3.7125    0.0000 C   0  0  0  0  0  0  0  0  0  0  0  0
    0.0000    3.3000    0.0000 C   0  0  0  0  0  0  0  0  0  0  0  0
    0.0000    2.4750    0.0000 C   0  0  0  0  0  0  0  0  0  0  0  0
    0.7145    2.0625    0.0000 N   0  0  0  0  0  0  0  0  0  0  0  0
    0.7145    1.2375    0.0000 C   0  0  0  0  0  0  0  0  0  0  0  0
    1.4289    0.8250    0.0000 C   0  0  0  0  0  0  0  0  0  0  0  0
    1.4289   -0.0000    0.0000 C   0  0  0  0  0  0  0  0  0  0  0  0
    0.7145   -0.4125    0.0000 C   0  0  0  0  0  0  0  0  0  0  0  0
    0.0000   -0.0000    0.0000 C   0  0  0  0  0  0  0  0  0  0  0  0
    0.0000    0.8250    0.0000 C   0  0  0  0  0  0  0  0  0  0  0  0
    0.7145   -1.2375    0.0000 C   0  0  0  0  0  0  0  0  0  0  0  0
    1.3819   -1.7224    0.0000 C   0  0  0  0  0  0  0  0  0  0  0  0
    1.1270   -2.5070    0.0000 C   0  0  0  0  0  0  0  0  0  0  0  0
    0.3020   -2.5070    0.0000 N   0  0  0  0  0  0  0  0  0  0  0  0
    0.0470   -1.7224    0.0000 O   0  0  0  0  0  0  0  0  0  0  0  0
    1.6119   -3.1745    0.0000 C   0  0  0  0  0  0  0  0  0  0  0  0
    2.4324   -3.0882    0.0000 C   0  0  0  0  0  0  0  0  0  0  0  0
    2.9173   -3.7557    0.0000 C   0  0  0  0  0  0  0  0  0  0  0  0
    2.5817   -4.5094    0.0000 C   0  0  0  0  0  0  0  0  0  0  0  0
    1.7613   -4.5956    0.0000 C   0  0  0  0  0  0  0  0  0  0  0  0
    1.2763   -3.9282    0.0000 C   0  0  0  0  0  0  0  0  0  0  0  0
    1.4289    2.4750    0.0000 S   0  0  0  0  0  0  0  0  0  0  0  0
    2.1434    2.8875    0.0000 C   0  0  0  0  0  0  0  0  0  0  0  0
    1.8414    1.7605    0.0000 O   0  0  0  0  0  0  0  0  0  0  0  0
    1.0164    3.1895    0.0000 O   0  0  0  0  0  0  0  0  0  0  0  0
  1  2  1  0  0  0  0
  2  3  2  0  0  0  0
  3  4  1  0  0  0  0
  4  5  2  0  0  0  0
  5  6  1  0  0  0  0
  6  7  2  0  0  0  0
  2  7  1  0  0  0  0
  7  8  1  0  0  0  0
  8  9  1  0  0  0  0
  9 10  1  0  0  0  0
 10 11  2  0  0  0  0
 11 12  1  0  0  0  0
 12 13  2  0  0  0  0
 13 14  1  0  0  0  0
 14 15  2  0  0  0  0
 10 15  1  0  0  0  0
 13 16  1  0  0  0  0
 16 17  2  0  0  0  0
 17 18  1  0  0  0  0
 18 19  2  0  0  0  0
 19 20  1  0  0  0  0
 16 20  1  0  0  0  0
 18 21  1  0  0  0  0
 21 22  2  0  0  0  0
 22 23  1  0  0  0  0
 23 24  2  0  0  0  0
 24 25  1  0  0  0  0
 25 26  2  0  0  0  0
 21 26  1  0  0  0  0
  9 27  1  0  0  0  0
 27 28  1  0  0  0  0
 27 29  2  0  0  0  0
 27 30  2  0  0  0  0
M  END
> <ID>
CPD_3535

$$$$
CPD_3540
  Mrv1822 09091914012D          

 28 32  0  0  0  0            999 V2000
   -0.9252   -0.5075    0.0000 C   0  0  0  0  0  0  0  0  0  0  0  0
   -0.7537   -1.3144    0.0000 C   0  0  0  0  0  0  0  0  0  0  0  0
    0.0000   -1.6500    0.0000 C   0  0  0  0  0  0  0  0  0  0  0  0
   -0.0862   -2.4705    0.0000 S   0  0  0  0  0  0  0  0  0  0  0  0
   -0.8932   -2.6420    0.0000 C   0  0  0  0  0  0  0  0  0  0  0  0
   -1.3057   -1.9275    0.0000 N   0  0  0  0  0  0  0  0  0  0  0  0
   -1.2288   -3.3957    0.0000 C   0  0  0  0  0  0  0  0  0  0  0  0
   -0.7438   -4.0631    0.0000 C   0  0  0  0  0  0  0  0  0  0  0  0
   -1.0794   -4.8168    0.0000 C   0  0  0  0  0  0  0  0  0  0  0  0
   -1.8999   -4.9030    0.0000 C   0  0  0  0  0  0  0  0  0  0  0  0
   -2.3848   -4.2356    0.0000 C   0  0  0  0  0  0  0  0  0  0  0  0
   -2.0492   -3.4819    0.0000 C   0  0  0  0  0  0  0  0  0  0  0  0
   -2.2354   -5.6567    0.0000 C   0  0  0  0  0  0  0  0  0  0  0  0
   -1.7505   -6.3241    0.0000 C   0  0  0  0  0  0  0  0  0  0  0  0
   -2.0861   -7.0778    0.0000 C   0  0  0  0  0  0  0  0  0  0  0  0
   -2.9066   -7.1641    0.0000 C   0  0  0  0  0  0  0  0  0  0  0  0
   -3.3915   -6.4966    0.0000 C   0  0  0  0  0  0  0  0  0  0  0  0
   -3.0559   -5.7429    0.0000 C   0  0  0  0  0  0  0  0  0  0  0  0
    0.7145   -1.2375    0.0000 C   0  0  0  0  0  0  0  0  0  0  0  0
    0.7145   -0.4125    0.0000 N   0  0  0  0  0  0  0  0  0  0  0  0
    1.4289    0.0000    0.0000 C   0  0  0  0  0  0  0  0  0  0  0  0
    2.1434   -0.4125    0.0000 C   0  0  0  0  0  0  0  0  0  0  0  0
    2.8579    0.0000    0.0000 N   0  0  0  0  0  0  0  0  0  0  0  0
    3.5724   -0.4125    0.0000 C   0  0  0  0  0  0  0  0  0  0  0  0
    3.5724   -1.2375    0.0000 C   0  0  0  0  0  0  0  0  0  0  0  0
    2.8579   -1.6500    0.0000 N   0  0  0  0  0  0  0  0  0  0  0  0
    2.1434   -1.2375    0.0000 C   0  0  0  0  0  0  0  0  0  0  0  0
    1.4289   -1.6500    0.0000 N   0  0  0  0  0  0  0  0  0  0  0  0
  1  2  1  0  0  0  0
  2  3  2  0  0  0  0
  3  4  1  0  0  0  0
  4  5  1  0  0  0  0
  5  6  2  0  0  0  0
  2  6  1  0  0  0  0
  5  7  1  0  0  0  0
  7  8  2  0  0  0  0
  8  9  1  0  0  0  0
  9 10  2  0  0  0  0
 10 11  1  0  0  0  0
 11 12  2  0  0  0  0
  7 12  1  0  0  0  0
 10 13  1  0  0  0  0
 13 14  2  0  0  0  0
 14 15  1  0  0  0  0
 15 16  2  0  0  0  0
 16 17  1  0  0  0  0
 17 18  2  0  0  0  0
 13 18  1  0  0  0  0
  3 19  1  0  0  0  0
 19 20  2  0  0  0  0
 20 21  1  0  0  0  0
 21 22  2  0  0  0  0
 22 23  1  0  0  0  0
 23 24  2  0  0  0  0
 24 25  1  0  0  0  0
 25 26  2  0  0  0  0
 26 27  1  0  0  0  0
 22 27  1  0  0  0  0
 27 28  2  0  0  0  0
 19 28  1  0  0  0  0
M  END
> <ID>
CPD_3540

$$$$
CPD_3545
  Mrv1822 09091914012D          

 23 27  0  0  0  0            999 V2000
    6.0949   -1.8590    0.0000 Cl  0  0  0  0  0  0  0  0  0  0  0  0
    6.0949   -1.0340    0.0000 C   0  0  0  0  0  0  0  0  0  0  0  0
    5.3805   -0.6215    0.0000 C   0  0  0  0  0  0  0  0  0  0  0  0
    5.3805    0.2035    0.0000 N   0  0  0  0  0  0  0  0  0  0  0  0
    6.0949    0.6160    0.0000 C   0  0  0  0  0  0  0  0  0  0  0  0
    6.8094    0.2035    0.0000 C   0  0  0  0  0  0  0  0  0  0  0  0
    6.8094   -0.6215    0.0000 C   0  0  0  0  0  0  0  0  0  0  0  0
    5.9234    1.4230    0.0000 N   0  0  0  0  0  0  0  0  0  0  0  0
    5.1029    1.5092    0.0000 N   0  0  0  0  0  0  0  0  0  0  0  0
    4.7674    0.7556    0.0000 C   0  0  0  0  0  0  0  0  0  0  0  0
    3.9604    0.5840    0.0000 C   0  0  0  0  0  0  0  0  0  0  0  0
    3.4084    1.1971    0.0000 C   0  0  0  0  0  0  0  0  0  0  0  0
    2.6014    1.0256    0.0000 C   0  0  0  0  0  0  0  0  0  0  0  0
    2.3464    0.2410    0.0000 C   0  0  0  0  0  0  0  0  0  0  0  0
    2.8985   -0.3721    0.0000 C   0  0  0  0  0  0  0  0  0  0  0  0
    3.7054   -0.2006    0.0000 C   0  0  0  0  0  0  0  0  0  0  0  0
    1.5214    0.2410    0.0000 C   0  0  0  0  0  0  0  0  0  0  0  0
    0.9694   -0.3721    0.0000 C   0  0  0  0  0  0  0  0  0  0  0  0
    0.1624   -0.2006    0.0000 C   0  0  0  0  0  0  0  0  0  0  0  0
   -0.0925    0.5840    0.0000 C   0  0  0  0  0  0  0  0  0  0  0  0
    0.4595    1.1971    0.0000 C   0  0  0  0  0  0  0  0  0  0  0  0
    1.2665    1.0256    0.0000 C   0  0  0  0  0  0  0  0  0  0  0  0
    1.9339    1.5105    0.0000 O   0  0  0  0  0  0  0  0  0  0  0  0
  1  2  1  0  0  0  0
  2  3  2  0  0  0  0
  3  4  1  0  0  0  0
  4  5  1  0  0  0  0
  5  6  1  0  0  0  0
  6  7  2  0  0  0  0
  2  7  1  0  0  0  0
  5  8  2  0  0  0  0
  8  9  1  0  0  0  0
  9 10  2  0  0  0  0
  4 10  1  0  0  0  0
 10 11  1  0  0  0  0
 11 12  2  0  0  0  0
 12 13  1  0  0  0  0
 13 14  2  0  0  0  0
 14 15  1  0  0  0  0
 15 16  2  0  0  0  0
 11 16  1  0  0  0  0
 14 17  1  0  0  0  0
 17 18  2  0  0  0  0
 18 19  1  0  0  0  0
 19 20  2  0  0  0  0
 20 21  1  0  0  0  0
 21 22  2  0  0  0  0
 17 22  1  0  0  0  0
 22 23  1  0  0  0  0
 13 23  1  0  0  0  0
M  END
> <ID>
CPD_3545

$$$$
CPD_3550
  Mrv1822 09091914012D          

 23 26  0  0  0  0            999 V2000
    0.4584   -4.5992    0.0000 C   0  0  0  0  0  0  0  0  0  0  0  0
    0.0237   -3.8980    0.0000 O   0  0  0  0  0  0  0  0  0  0  0  0
    0.4137   -3.1710    0.0000 C   0  0  0  0  0  0  0  0  0  0  0  0
   -0.0209   -2.4698    0.0000 C   0  0  0  0  0  0  0  0  0  0  0  0
    0.3691   -1.7427    0.0000 C   0  0  0  0  0  0  0  0  0  0  0  0
   -0.0655   -1.0415    0.0000 C   0  0  0  0  0  0  0  0  0  0  0  0
    1.1937   -1.7170    0.0000 C   0  0  0  0  0  0  0  0  0  0  0  0
    1.6283   -2.4182    0.0000 C   0  0  0  0  0  0  0  0  0  0  0  0
    1.2383   -3.1452    0.0000 C   0  0  0  0  0  0  0  0  0  0  0  0
    1.6729   -3.8465    0.0000 Br  0  0  0  0  0  0  0  0  0  0  0  0
    1.5837   -0.9900    0.0000 C   0  0  0  0  0  0  0  0  0  0  0  0
    2.4083   -0.9642    0.0000 C   0  0  0  0  0  0  0  0  0  0  0  0
    2.7983   -0.2372    0.0000 C   0  0  0  0  0  0  0  0  0  0  0  0
    3.5995   -0.0406    0.0000 N   0  0  0  0  0  0  0  0  0  0  0  0
    3.6601    0.7822    0.0000 N   0  0  0  0  0  0  0  0  0  0  0  0
    2.8963    1.0941    0.0000 N   0  0  0  0  0  0  0  0  0  0  0  0
    2.3637    0.4640    0.0000 N   0  0  0  0  0  0  0  0  0  0  0  0
    1.5391    0.4383    0.0000 C   0  0  0  0  0  0  0  0  0  0  0  0
    1.1491   -0.2887    0.0000 C   0  0  0  0  0  0  0  0  0  0  0  0
    0.3245   -0.3145    0.0000 C   0  0  0  0  0  0  0  0  0  0  0  0
   -0.1101    0.3867    0.0000 C   0  0  0  0  0  0  0  0  0  0  0  0
    0.2799    1.1137    0.0000 C   0  0  0  0  0  0  0  0  0  0  0  0
    1.1045    1.1395    0.0000 C   0  0  0  0  0  0  0  0  0  0  0  0
  1  2  1  0  0  0  0
  2  3  1  0  0  0  0
  3  4  2  0  0  0  0
  4  5  1  0  0  0  0
  5  6  1  0  0  0  0
  5  7  2  0  0  0  0
  7  8  1  0  0  0  0
  8  9  2  0  0  0  0
  3  9  1  0  0  0  0
  9 10  1  0  0  0  0
  7 11  1  0  0  0  0
 11 12  2  0  0  0  0
 12 13  1  0  0  0  0
 13 14  2  0  0  0  0
 14 15  1  0  0  0  0
 15 16  2  0  0  0  0
 16 17  1  0  0  0  0
 13 17  1  0  0  0  0
 17 18  1  0  0  0  0
 18 19  2  0  0  0  0
 11 19  1  0  0  0  0
 19 20  1  0  0  0  0
 20 21  2  0  0  0  0
 21 22  1  0  0  0  0
 22 23  2  0  0  0  0
 18 23  1  0  0  0  0
M  END
> <ID>
CPD_3550

$$$$
CPD_3555
  Mrv1822 09091914012D          

 26 29  0  0  0  0            999 V2000
    1.2829   -4.5735    0.0000 C   0  0  0  0  0  0  0  0  0  0  0  0
    1.6729   -3.8465    0.0000 C   0  0  0  0  0  0  0  0  0  0  0  0
    2.4975   -3.8207    0.0000 O   0  0  0  0  0  0  0  0  0  0  0  0
    1.2383   -3.1452    0.0000 C   0  0  0  0  0  0  0  0  0  0  0  0
    0.4137   -3.1710    0.0000 C   0  0  0  0  0  0  0  0  0  0  0  0
    0.0237   -3.8980    0.0000 F   0  0  0  0  0  0  0  0  0  0  0  0
   -0.0209   -2.4698    0.0000 C   0  0  0  0  0  0  0  0  0  0  0  0
   -0.8455   -2.4955    0.0000 F   0  0  0  0  0  0  0  0  0  0  0  0
    0.3691   -1.7427    0.0000 C   0  0  0  0  0  0  0  0  0  0  0  0
   -0.0655   -1.0415    0.0000 F   0  0  0  0  0  0  0  0  0  0  0  0
    1.1937   -1.7170    0.0000 C   0  0  0  0  0  0  0  0  0  0  0  0
    1.6283   -2.4182    0.0000 C   0  0  0  0  0  0  0  0  0  0  0  0
    2.4529   -2.3925    0.0000 F   0  0  0  0  0  0  0  0  0  0  0  0
    1.5837   -0.9900    0.0000 C   0  0  0  0  0  0  0  0  0  0  0  0
    2.4083   -0.9642    0.0000 C   0  0  0  0  0  0  0  0  0  0  0  0
    2.7983   -0.2372    0.0000 C   0  0  0  0  0  0  0  0  0  0  0  0
    3.5995   -0.0406    0.0000 N   0  0  0  0  0  0  0  0  0  0  0  0
    3.6601    0.7822    0.0000 N   0  0  0  0  0  0  0  0  0  0  0  0
    2.8963    1.0941    0.0000 N   0  0  0  0  0  0  0  0  0  0  0  0
    2.3637    0.4640    0.0000 N   0  0  0  0  0  0  0  0  0  0  0  0
    1.5391    0.4383    0.0000 C   0  0  0  0  0  0  0  0  0  0  0  0
    1.1491   -0.2887    0.0000 C   0  0  0  0  0  0  0  0  0  0  0  0
    0.3245   -0.3145    0.0000 C   0  0  0  0  0  0  0  0  0  0  0  0
   -0.1101    0.3867    0.0000 C   0  0  0  0  0  0  0  0  0  0  0  0
    0.2799    1.1137    0.0000 C   0  0  0  0  0  0  0  0  0  0  0  0
    1.1045    1.1395    0.0000 C   0  0  0  0  0  0  0  0  0  0  0  0
  1  2  1  0  0  0  0
  2  3  2  0  0  0  0
  2  4  1  0  0  0  0
  4  5  2  0  0  0  0
  5  6  1  0  0  0  0
  5  7  1  0  0  0  0
  7  8  1  0  0  0  0
  7  9  2  0  0  0  0
  9 10  1  0  0  0  0
  9 11  1  0  0  0  0
 11 12  2  0  0  0  0
  4 12  1  0  0  0  0
 12 13  1  0  0  0  0
 11 14  1  0  0  0  0
 14 15  2  0  0  0  0
 15 16  1  0  0  0  0
 16 17  2  0  0  0  0
 17 18  1  0  0  0  0
 18 19  2  0  0  0  0
 19 20  1  0  0  0  0
 16 20  1  0  0  0  0
 20 21  1  0  0  0  0
 21 22  2  0  0  0  0
 14 22  1  0  0  0  0
 22 23  1  0  0  0  0
 23 24  2  0  0  0  0
 24 25  1  0  0  0  0
 25 26  2  0  0  0  0
 21 26  1  0  0  0  0
M  END
> <ID>
CPD_3555

$$$$
CPD_3560
  Mrv1822 09091914012D          

 22 25  0  0  0  0            999 V2000
    0.0237   -3.8980    0.0000 O   0  0  0  0  0  0  0  0  0  0  0  0
    0.4137   -3.1710    0.0000 C   0  0  0  0  0  0  0  0  0  0  0  0
   -0.0209   -2.4698    0.0000 C   0  0  0  0  0  0  0  0  0  0  0  0
    0.3691   -1.7427    0.0000 C   0  0  0  0  0  0  0  0  0  0  0  0
   -0.0655   -1.0415    0.0000 O   0  0  0  0  0  0  0  0  0  0  0  0
    1.1937   -1.7170    0.0000 C   0  0  0  0  0  0  0  0  0  0  0  0
    1.6283   -2.4182    0.0000 C   0  0  0  0  0  0  0  0  0  0  0  0
    1.2383   -3.1452    0.0000 C   0  0  0  0  0  0  0  0  0  0  0  0
    1.6729   -3.8465    0.0000 Cl  0  0  0  0  0  0  0  0  0  0  0  0
    1.5837   -0.9900    0.0000 C   0  0  0  0  0  0  0  0  0  0  0  0
    2.4083   -0.9642    0.0000 C   0  0  0  0  0  0  0  0  0  0  0  0
    2.7983   -0.2372    0.0000 C   0  0  0  0  0  0  0  0  0  0  0  0
    3.5995   -0.0406    0.0000 N   0  0  0  0  0  0  0  0  0  0  0  0
    3.6601    0.7822    0.0000 N   0  0  0  0  0  0  0  0  0  0  0  0
    2.8963    1.0941    0.0000 N   0  0  0  0  0  0  0  0  0  0  0  0
    2.3637    0.4640    0.0000 N   0  0  0  0  0  0  0  0  0  0  0  0
    1.5391    0.4383    0.0000 C   0  0  0  0  0  0  0  0  0  0  0  0
    1.1491   -0.2887    0.0000 C   0  0  0  0  0  0  0  0  0  0  0  0
    0.3245   -0.3145    0.0000 C   0  0  0  0  0  0  0  0  0  0  0  0
   -0.1101    0.3867    0.0000 C   0  0  0  0  0  0  0  0  0  0  0  0
    0.2799    1.1137    0.0000 C   0  0  0  0  0  0  0  0  0  0  0  0
    1.1045    1.1395    0.0000 C   0  0  0  0  0  0  0  0  0  0  0  0
  1  2  1  0  0  0  0
  2  3  2  0  0  0  0
  3  4  1  0  0  0  0
  4  5  1  0  0  0  0
  4  6  2  0  0  0  0
  6  7  1  0  0  0  0
  7  8  2  0  0  0  0
  2  8  1  0  0  0  0
  8  9  1  0  0  0  0
  6 10  1  0  0  0  0
 10 11  2  0  0  0  0
 11 12  1  0  0  0  0
 12 13  2  0  0  0  0
 13 14  1  0  0  0  0
 14 15  2  0  0  0  0
 15 16  1  0  0  0  0
 12 16  1  0  0  0  0
 16 17  1  0  0  0  0
 17 18  2  0  0  0  0
 10 18  1  0  0  0  0
 18 19  1  0  0  0  0
 19 20  2  0  0  0  0
 20 21  1  0  0  0  0
 21 22  2  0  0  0  0
 17 22  1  0  0  0  0
M  END
> <ID>
CPD_3560

$$$$
CPD_3565
  Mrv1822 09091914012D          

 22 25  0  0  0  0            999 V2000
   -0.8901   -1.0673    0.0000 C   0  0  0  0  0  0  0  0  0  0  0  0
   -0.0655   -1.0415    0.0000 O   0  0  0  0  0  0  0  0  0  0  0  0
    0.3691   -1.7427    0.0000 C   0  0  0  0  0  0  0  0  0  0  0  0
    1.1937   -1.7170    0.0000 C   0  0  0  0  0  0  0  0  0  0  0  0
    1.6283   -2.4182    0.0000 C   0  0  0  0  0  0  0  0  0  0  0  0
    1.2383   -3.1452    0.0000 C   0  0  0  0  0  0  0  0  0  0  0  0
    1.6729   -3.8465    0.0000 F   0  0  0  0  0  0  0  0  0  0  0  0
    0.4137   -3.1710    0.0000 C   0  0  0  0  0  0  0  0  0  0  0  0
   -0.0209   -2.4698    0.0000 C   0  0  0  0  0  0  0  0  0  0  0  0
    1.5837   -0.9900    0.0000 C   0  0  0  0  0  0  0  0  0  0  0  0
    2.4083   -0.9642    0.0000 C   0  0  0  0  0  0  0  0  0  0  0  0
    2.7983   -0.2372    0.0000 C   0  0  0  0  0  0  0  0  0  0  0  0
    3.5995   -0.0406    0.0000 N   0  0  0  0  0  0  0  0  0  0  0  0
    3.6601    0.7822    0.0000 N   0  0  0  0  0  0  0  0  0  0  0  0
    2.8963    1.0941    0.0000 N   0  0  0  0  0  0  0  0  0  0  0  0
    2.3637    0.4640    0.0000 N   0  0  0  0  0  0  0  0  0  0  0  0
    1.5391    0.4383    0.0000 C   0  0  0  0  0  0  0  0  0  0  0  0
    1.1491   -0.2887    0.0000 C   0  0  0  0  0  0  0  0  0  0  0  0
    0.3245   -0.3145    0.0000 C   0  0  0  0  0  0  0  0  0  0  0  0
   -0.1101    0.3867    0.0000 C   0  0  0  0  0  0  0  0  0  0  0  0
    0.2799    1.1137    0.0000 C   0  0  0  0  0  0  0  0  0  0  0  0
    1.1045    1.1395    0.0000 C   0  0  0  0  0  0  0  0  0  0  0  0
  1  2  1  0  0  0  0
  2  3  1  0  0  0  0
  3  4  2  0  0  0  0
  4  5  1  0  0  0  0
  5  6  2  0  0  0  0
  6  7  1  0  0  0  0
  6  8  1  0  0  0  0
  8  9  2  0  0  0  0
  3  9  1  0  0  0  0
  4 10  1  0  0  0  0
 10 11  2  0  0  0  0
 11 12  1  0  0  0  0
 12 13  2  0  0  0  0
 13 14  1  0  0  0  0
 14 15  2  0  0  0  0
 15 16  1  0  0  0  0
 12 16  1  0  0  0  0
 16 17  1  0  0  0  0
 17 18  2  0  0  0  0
 10 18  1  0  0  0  0
 18 19  1  0  0  0  0
 19 20  2  0  0  0  0
 20 21  1  0  0  0  0
 21 22  2  0  0  0  0
 17 22  1  0  0  0  0
M  END
> <ID>
CPD_3565

$$$$
CPD_3570
  Mrv1822 09091914012D          

 32 35  0  0  0  0            999 V2000
   -5.0013   12.5411    0.0000 C   0  0  0  0  0  0  0  0  0  0  0  0
   -4.2868   12.1286    0.0000 C   0  0  0  0  0  0  0  0  0  0  0  0
   -4.6993   11.4141    0.0000 C   0  0  0  0  0  0  0  0  0  0  0  0
   -3.8743   12.8430    0.0000 C   0  0  0  0  0  0  0  0  0  0  0  0
   -3.5724   11.7161    0.0000 O   0  0  0  0  0  0  0  0  0  0  0  0
   -3.5724   10.8911    0.0000 C   0  0  0  0  0  0  0  0  0  0  0  0
   -4.2868   10.4786    0.0000 O   0  0  0  0  0  0  0  0  0  0  0  0
   -2.8579   10.4786    0.0000 N   0  0  0  0  0  0  0  0  0  0  0  0
   -2.1434   10.8911    0.0000 C   0  0  0  0  0  0  0  0  0  0  0  0
   -1.4289   10.4786    0.0000 C   0  0  0  0  0  0  0  0  0  0  0  0
   -1.4289    9.6536    0.0000 N   0  0  0  0  0  0  0  0  0  0  0  0
   -2.1434    9.2411    0.0000 C   0  0  0  0  0  0  0  0  0  0  0  0
   -2.8579    9.6536    0.0000 C   0  0  0  0  0  0  0  0  0  0  0  0
   -2.1434    8.4161    0.0000 C   0  0  0  0  0  0  0  0  0  0  0  0
   -1.4289    8.0036    0.0000 C   0  0  0  0  0  0  0  0  0  0  0  0
   -1.4289    7.1786    0.0000 C   0  0  0  0  0  0  0  0  0  0  0  0
   -2.1434    6.7661    0.0000 C   0  0  0  0  0  0  0  0  0  0  0  0
   -2.8579    7.1786    0.0000 C   0  0  0  0  0  0  0  0  0  0  0  0
   -2.8579    8.0036    0.0000 C   0  0  0  0  0  0  0  0  0  0  0  0
   -2.1434    5.9411    0.0000 C   0  0  0  0  0  0  0  0  0  0  0  0
   -1.4289    5.5286    0.0000 C   0  0  0  0  0  0  0  0  0  0  0  0
   -1.4289    4.7036    0.0000 C   0  0  0  0  0  0  0  0  0  0  0  0
   -0.7145    4.2911    0.0000 O   0  0  0  0  0  0  0  0  0  0  0  0
   -0.7145    3.4661    0.0000 C   0  0  0  0  0  0  0  0  0  0  0  0
   -0.0470    2.9812    0.0000 C   0  0  0  0  0  0  0  0  0  0  0  0
   -0.3020    2.1965    0.0000 C   0  0  0  0  0  0  0  0  0  0  0  0
   -1.1270    2.1965    0.0000 N   0  0  0  0  0  0  0  0  0  0  0  0
   -1.3819    2.9812    0.0000 C   0  0  0  0  0  0  0  0  0  0  0  0
   -2.1434    4.2911    0.0000 C   0  0  0  0  0  0  0  0  0  0  0  0
   -2.8579    4.7036    0.0000 C   0  0  0  0  0  0  0  0  0  0  0  0
   -2.8579    5.5286    0.0000 C   0  0  0  0  0  0  0  0  0  0  0  0
   -3.5724    5.9411    0.0000 F   0  0  0  0  0  0  0  0  0  0  0  0
  1  2  1  0  0  0  0
  2  3  1  0  0  0  0
  2  4  1  0  0  0  0
  2  5  1  0  0  0  0
  5  6  1  0  0  0  0
  6  7  2  0  0  0  0
  6  8  1  0  0  0  0
  8  9  1  0  0  0  0
  9 10  1  0  0  0  0
 10 11  1  0  0  0  0
 11 12  1  0  0  0  0
 12 13  1  0  0  0  0
  8 13  1  0  0  0  0
 12 14  1  0  0  0  0
 14 15  2  0  0  0  0
 15 16  1  0  0  0  0
 16 17  2  0  0  0  0
 17 18  1  0  0  0  0
 18 19  2  0  0  0  0
 14 19  1  0  0  0  0
 17 20  1  0  0  0  0
 20 21  2  0  0  0  0
 21 22  1  0  0  0  0
 22 23  1  0  0  0  0
 23 24  1  0  0  0  0
 24 25  1  0  0  0  0
 25 26  1  0  0  0  0
 26 27  1  0  0  0  0
 27 28  1  0  0  0  0
 24 28  1  0  0  0  0
 22 29  2  0  0  0  0
 29 30  1  0  0  0  0
 30 31  2  0  0  0  0
 20 31  1  0  0  0  0
 31 32  1  0  0  0  0
M  END
> <ID>
CPD_3570

$$$$
CPD_3575
  Mrv1822 09091914012D          

 34 38  0  0  0  0            999 V2000
   -1.9030   -3.0354    0.0000 C   0  0  0  0  0  0  0  0  0  0  0  0
   -1.2184   -2.5750    0.0000 O   0  0  0  0  0  0  0  0  0  0  0  0
   -1.2748   -1.7520    0.0000 C   0  0  0  0  0  0  0  0  0  0  0  0
   -2.0158   -1.3893    0.0000 O   0  0  0  0  0  0  0  0  0  0  0  0
   -0.5902   -1.2916    0.0000 C   0  0  0  0  0  0  0  0  0  0  0  0
   -0.6467   -0.4685    0.0000 O   0  0  0  0  0  0  0  0  0  0  0  0
    0.0379   -0.0081    0.0000 C   0  0  0  0  0  0  0  0  0  0  0  0
   -0.0185    0.8150    0.0000 C   0  0  0  0  0  0  0  0  0  0  0  0
    0.6661    1.2753    0.0000 C   0  0  0  0  0  0  0  0  0  0  0  0
    1.4071    0.9127    0.0000 C   0  0  0  0  0  0  0  0  0  0  0  0
    1.4635    0.0896    0.0000 C   0  0  0  0  0  0  0  0  0  0  0  0
    0.7789   -0.3708    0.0000 C   0  0  0  0  0  0  0  0  0  0  0  0
    0.8785    0.1873    0.0000 C   0  0  0  0  0  0  0  0  0  0  0  0
    0.1939   -0.2731    0.0000 C   0  0  0  0  0  0  0  0  0  0  0  0
   -0.5471    0.0896    0.0000 C   0  0  0  0  0  0  0  0  0  0  0  0
   -0.6035    0.9127    0.0000 C   0  0  0  0  0  0  0  0  0  0  0  0
    0.0811    1.3731    0.0000 C   0  0  0  0  0  0  0  0  0  0  0  0
    0.8221    1.0104    0.0000 C   0  0  0  0  0  0  0  0  0  0  0  0
    2.2045   -0.2731    0.0000 C   0  0  0  0  0  0  0  0  0  0  0  0
    1.7187   -0.9398    0.0000 C   0  0  0  0  0  0  0  0  0  0  0  0
    2.7768   -0.8673    0.0000 C   0  0  0  0  0  0  0  0  0  0  0  0
    2.8891    0.1873    0.0000 C   0  0  0  0  0  0  0  0  0  0  0  0
    2.8327    1.0104    0.0000 C   0  0  0  0  0  0  0  0  0  0  0  0
    2.0917    1.3731    0.0000 C   0  0  0  0  0  0  0  0  0  0  0  0
    2.0353    2.1961    0.0000 O   0  0  0  0  0  0  0  0  0  0  0  0
   -0.7595    1.1776    0.0000 C   0  0  0  0  0  0  0  0  0  0  0  0
   -1.4441    0.7172    0.0000 O   0  0  0  0  0  0  0  0  0  0  0  0
   -0.8159    2.0007    0.0000 N   0  0  0  0  0  0  0  0  0  0  0  0
   -0.1313    2.4611    0.0000 C   0  0  0  0  0  0  0  0  0  0  0  0
   -0.1877    3.2842    0.0000 C   0  0  0  0  0  0  0  0  0  0  0  0
    0.4968    3.7446    0.0000 C   0  0  0  0  0  0  0  0  0  0  0  0
    1.2379    3.3819    0.0000 C   0  0  0  0  0  0  0  0  0  0  0  0
    1.2943    2.5588    0.0000 C   0  0  0  0  0  0  0  0  0  0  0  0
    0.6097    2.0984    0.0000 C   0  0  0  0  0  0  0  0  0  0  0  0
  1  2  1  0  0  0  0
  2  3  1  0  0  0  0
  3  4  2  0  0  0  0
  3  5  1  0  0  0  0
  5  6  1  0  0  0  0
  6  7  1  0  0  0  0
  7  8  2  0  0  0  0
  8  9  1  0  0  0  0
  9 10  1  0  0  0  0
 10 11  1  0  0  0  0
 11 12  1  0  0  0  0
  7 12  1  0  0  0  0
 12 13  1  0  0  0  0
 13 14  4  0  0  0  0
 14 15  4  0  0  0  0
 15 16  4  0  0  0  0
 16 17  4  0  0  0  0
 17 18  4  0  0  0  0
  9 18  1  0  0  0  0
 13 18  4  0  0  0  0
 11 19  1  0  0  0  0
 19 20  1  0  0  0  0
 19 21  1  0  0  0  0
 19 22  1  0  0  0  0
 22 23  1  0  0  0  0
 23 24  1  0  0  0  0
 10 24  1  0  0  0  0
 24 25  2  0  0  0  0
  8 26  1  0  0  0  0
 26 27  2  0  0  0  0
 26 28  1  0  0  0  0
 28 29  1  0  0  0  0
 29 30  4  0  0  0  0
 30 31  4  0  0  0  0
 31 32  4  0  0  0  0
 32 33  4  0  0  0  0
 33 34  4  0  0  0  0
 29 34  4  0  0  0  0
M  END
> <ID>
CPD_3575

$$$$
CPD_3580
  Mrv1822 09091914012D          

 33 37  0  0  0  0            999 V2000
   -1.8358   -3.0729    0.0000 C   0  0  0  0  0  0  0  0  0  0  0  0
   -1.1599   -2.5998    0.0000 O   0  0  0  0  0  0  0  0  0  0  0  0
   -1.2316   -1.7779    0.0000 C   0  0  0  0  0  0  0  0  0  0  0  0
   -1.9793   -1.4291    0.0000 O   0  0  0  0  0  0  0  0  0  0  0  0
   -0.5558   -1.3048    0.0000 C   0  0  0  0  0  0  0  0  0  0  0  0
   -0.6275   -0.4830    0.0000 O   0  0  0  0  0  0  0  0  0  0  0  0
    0.0484   -0.0099    0.0000 C   0  0  0  0  0  0  0  0  0  0  0  0
   -0.0234    0.8120    0.0000 C   0  0  0  0  0  0  0  0  0  0  0  0
    0.6525    1.2851    0.0000 C   0  0  0  0  0  0  0  0  0  0  0  0
    1.4001    0.9363    0.0000 C   0  0  0  0  0  0  0  0  0  0  0  0
    2.0760    1.4094    0.0000 C   0  0  0  0  0  0  0  0  0  0  0  0
    2.8237    1.0606    0.0000 C   0  0  0  0  0  0  0  0  0  0  0  0
    3.1635    0.0137    0.0000 C   0  0  0  0  0  0  0  0  0  0  0  0
    2.2195   -0.2344    0.0000 C   0  0  0  0  0  0  0  0  0  0  0  0
    1.4719    0.1144    0.0000 C   0  0  0  0  0  0  0  0  0  0  0  0
    2.1478    0.5875    0.0000 O   0  0  0  0  0  0  0  0  0  0  0  0
    2.8954    0.2387    0.0000 C   0  0  0  0  0  0  0  0  0  0  0  0
    0.7960   -0.3587    0.0000 C   0  0  0  0  0  0  0  0  0  0  0  0
    0.8851    0.2012    0.0000 C   0  0  0  0  0  0  0  0  0  0  0  0
    0.2093   -0.2719    0.0000 C   0  0  0  0  0  0  0  0  0  0  0  0
   -0.5384    0.0769    0.0000 C   0  0  0  0  0  0  0  0  0  0  0  0
   -0.6101    0.8988    0.0000 C   0  0  0  0  0  0  0  0  0  0  0  0
    0.0657    1.3719    0.0000 C   0  0  0  0  0  0  0  0  0  0  0  0
    0.8134    1.0231    0.0000 C   0  0  0  0  0  0  0  0  0  0  0  0
   -0.7710    1.1608    0.0000 C   0  0  0  0  0  0  0  0  0  0  0  0
   -1.4469    0.6877    0.0000 O   0  0  0  0  0  0  0  0  0  0  0  0
   -0.8428    1.9827    0.0000 N   0  0  0  0  0  0  0  0  0  0  0  0
   -0.1669    2.4557    0.0000 C   0  0  0  0  0  0  0  0  0  0  0  0
   -0.2387    3.2776    0.0000 C   0  0  0  0  0  0  0  0  0  0  0  0
    0.4372    3.7507    0.0000 C   0  0  0  0  0  0  0  0  0  0  0  0
    1.1848    3.4019    0.0000 C   0  0  0  0  0  0  0  0  0  0  0  0
    1.2566    2.5800    0.0000 C   0  0  0  0  0  0  0  0  0  0  0  0
    0.5807    2.1070    0.0000 C   0  0  0  0  0  0  0  0  0  0  0  0
  1  2  1  0  0  0  0
  2  3  1  0  0  0  0
  3  4  2  0  0  0  0
  3  5  1  0  0  0  0
  5  6  1  0  0  0  0
  6  7  1  0  0  0  0
  7  8  2  0  0  0  0
  8  9  1  0  0  0  0
  9 10  1  0  0  0  0
 10 11  1  0  0  0  0
 11 12  2  0  0  0  0
 12 13  1  0  0  0  0
 13 14  1  0  0  0  0
 14 15  1  0  0  0  0
 10 15  1  0  0  0  0
 15 16  1  0  0  0  0
 16 17  1  0  0  0  0
 15 18  1  0  0  0  0
  7 18  1  0  0  0  0
 18 19  1  0  0  0  0
 19 20  4  0  0  0  0
 20 21  4  0  0  0  0
 21 22  4  0  0  0  0
 22 23  4  0  0  0  0
 23 24  4  0  0  0  0
  9 24  1  0  0  0  0
 19 24  4  0  0  0  0
  8 25  1  0  0  0  0
 25 26  2  0  0  0  0
 25 27  1  0  0  0  0
 27 28  1  0  0  0  0
 28 29  4  0  0  0  0
 29 30  4  0  0  0  0
 30 31  4  0  0  0  0
 31 32  4  0  0  0  0
 32 33  4  0  0  0  0
 28 33  4  0  0  0  0
M  END
> <ID>
CPD_3580

$$$$
CPD_3585
  Mrv1822 09091914012D          

 36 41  0  0  0  0            999 V2000
   -1.9030   -3.0354    0.0000 C   0  0  0  0  0  0  0  0  0  0  0  0
   -1.2184   -2.5750    0.0000 O   0  0  0  0  0  0  0  0  0  0  0  0
   -1.2748   -1.7520    0.0000 C   0  0  0  0  0  0  0  0  0  0  0  0
   -2.0158   -1.3893    0.0000 O   0  0  0  0  0  0  0  0  0  0  0  0
   -0.5902   -1.2916    0.0000 C   0  0  0  0  0  0  0  0  0  0  0  0
   -0.6467   -0.4685    0.0000 O   0  0  0  0  0  0  0  0  0  0  0  0
    0.0379   -0.0081    0.0000 C   0  0  0  0  0  0  0  0  0  0  0  0
   -0.0185    0.8150    0.0000 C   0  0  0  0  0  0  0  0  0  0  0  0
    0.6661    1.2753    0.0000 C   0  0  0  0  0  0  0  0  0  0  0  0
    1.4071    0.9127    0.0000 C   0  0  0  0  0  0  0  0  0  0  0  0
    2.0917    1.3731    0.0000 C   0  0  0  0  0  0  0  0  0  0  0  0
    2.8327    1.0104    0.0000 C   0  0  0  0  0  0  0  0  0  0  0  0
    2.8891    0.1873    0.0000 C   0  0  0  0  0  0  0  0  0  0  0  0
    2.2045   -0.2731    0.0000 C   0  0  0  0  0  0  0  0  0  0  0  0
    1.4635    0.0896    0.0000 C   0  0  0  0  0  0  0  0  0  0  0  0
    0.7789   -0.3708    0.0000 C   0  0  0  0  0  0  0  0  0  0  0  0
    0.8785    0.1873    0.0000 C   0  0  0  0  0  0  0  0  0  0  0  0
    0.1939   -0.2731    0.0000 C   0  0  0  0  0  0  0  0  0  0  0  0
   -0.5471    0.0896    0.0000 C   0  0  0  0  0  0  0  0  0  0  0  0
   -0.6035    0.9127    0.0000 C   0  0  0  0  0  0  0  0  0  0  0  0
    0.0811    1.3731    0.0000 C   0  0  0  0  0  0  0  0  0  0  0  0
    0.8221    1.0104    0.0000 C   0  0  0  0  0  0  0  0  0  0  0  0
    1.5067    1.4708    0.0000 C   0  0  0  0  0  0  0  0  0  0  0  0
    2.2477    1.1081    0.0000 C   0  0  0  0  0  0  0  0  0  0  0  0
    2.3041    0.2850    0.0000 C   0  0  0  0  0  0  0  0  0  0  0  0
    3.0451   -0.0776    0.0000 O   0  0  0  0  0  0  0  0  0  0  0  0
    1.6195   -0.1753    0.0000 N   0  0  0  0  0  0  0  0  0  0  0  0
   -0.7595    1.1776    0.0000 C   0  0  0  0  0  0  0  0  0  0  0  0
   -1.4441    0.7172    0.0000 O   0  0  0  0  0  0  0  0  0  0  0  0
   -0.8159    2.0007    0.0000 N   0  0  0  0  0  0  0  0  0  0  0  0
   -0.1313    2.4611    0.0000 C   0  0  0  0  0  0  0  0  0  0  0  0
   -0.1877    3.2842    0.0000 C   0  0  0  0  0  0  0  0  0  0  0  0
    0.4968    3.7446    0.0000 C   0  0  0  0  0  0  0  0  0  0  0  0
    1.2379    3.3819    0.0000 C   0  0  0  0  0  0  0  0  0  0  0  0
    1.2943    2.5588    0.0000 C   0  0  0  0  0  0  0  0  0  0  0  0
    0.6097    2.0984    0.0000 C   0  0  0  0  0  0  0  0  0  0  0  0
  1  2  1  0  0  0  0
  2  3  1  0  0  0  0
  3  4  2  0  0  0  0
  3  5  1  0  0  0  0
  5  6  1  0  0  0  0
  6  7  1  0  0  0  0
  7  8  2  0  0  0  0
  8  9  1  0  0  0  0
  9 10  1  0  0  0  0
 10 11  4  0  0  0  0
 11 12  4  0  0  0  0
 12 13  4  0  0  0  0
 13 14  4  0  0  0  0
 14 15  4  0  0  0  0
 10 15  4  0  0  0  0
 15 16  1  0  0  0  0
  7 16  1  0  0  0  0
 16 17  1  0  0  0  0
 17 18  1  0  0  0  0
 18 19  1  0  0  0  0
 19 20  1  0  0  0  0
 20 21  1  0  0  0  0
 21 22  1  0  0  0  0
  9 22  1  0  0  0  0
 17 22  1  0  0  0  0
 22 23  1  0  0  0  0
 23 24  1  0  0  0  0
 24 25  1  0  0  0  0
 25 26  2  0  0  0  0
 25 27  1  0  0  0  0
 17 27  1  0  0  0  0
  8 28  1  0  0  0  0
 28 29  2  0  0  0  0
 28 30  1  0  0  0  0
 30 31  1  0  0  0  0
 31 32  4  0  0  0  0
 32 33  4  0  0  0  0
 33 34  4  0  0  0  0
 34 35  4  0  0  0  0
 35 36  4  0  0  0  0
 31 36  4  0  0  0  0
M  END
> <ID>
CPD_3585

$$$$
CPD_3590
  Mrv1822 09091914012D          

 20 21  0  0  0  0            999 V2000
    1.4289   -0.0000    0.0000 C   0  0  0  0  0  0  0  0  0  0  0  0
    0.7145   -0.4125    0.0000 N   0  0  0  0  0  0  0  0  0  0  0  0
    0.7145   -1.2375    0.0000 C   0  0  0  0  0  0  0  0  0  0  0  0
    1.3819   -1.7224    0.0000 C   0  0  0  0  0  0  0  0  0  0  0  0
    2.1665   -1.4675    0.0000 C   0  0  0  0  0  0  0  0  0  0  0  0
    1.1270   -2.5070    0.0000 N   0  0  0  0  0  0  0  0  0  0  0  0
    0.3020   -2.5070    0.0000 C   0  0  0  0  0  0  0  0  0  0  0  0
   -0.1830   -3.1745    0.0000 S   0  0  0  0  0  0  0  0  0  0  0  0
    0.0470   -1.7224    0.0000 N   0  0  0  0  0  0  0  0  0  0  0  0
   -0.7376   -1.4675    0.0000 C   0  0  0  0  0  0  0  0  0  0  0  0
   -1.3507   -2.0195    0.0000 C   0  0  0  0  0  0  0  0  0  0  0  0
   -2.1353   -1.7646    0.0000 C   0  0  0  0  0  0  0  0  0  0  0  0
   -2.3068   -0.9576    0.0000 C   0  0  0  0  0  0  0  0  0  0  0  0
   -3.0915   -0.7027    0.0000 Cl  0  0  0  0  0  0  0  0  0  0  0  0
   -1.6937   -0.4056    0.0000 C   0  0  0  0  0  0  0  0  0  0  0  0
   -0.9091   -0.6605    0.0000 C   0  0  0  0  0  0  0  0  0  0  0  0
   -2.7484   -2.3166    0.0000 C   0  0  0  0  0  0  0  0  0  0  0  0
   -3.3615   -2.8686    0.0000 F   0  0  0  0  0  0  0  0  0  0  0  0
   -3.3004   -1.7035    0.0000 F   0  0  0  0  0  0  0  0  0  0  0  0
   -2.1964   -2.9297    0.0000 F   0  0  0  0  0  0  0  0  0  0  0  0
  1  2  1  0  0  0  0
  2  3  1  0  0  0  0
  3  4  2  0  0  0  0
  4  5  1  0  0  0  0
  4  6  1  0  0  0  0
  6  7  1  0  0  0  0
  7  8  2  0  0  0  0
  7  9  1  0  0  0  0
  3  9  1  0  0  0  0
  9 10  1  0  0  0  0
 10 11  2  0  0  0  0
 11 12  1  0  0  0  0
 12 13  2  0  0  0  0
 13 14  1  0  0  0  0
 13 15  1  0  0  0  0
 15 16  2  0  0  0  0
 10 16  1  0  0  0  0
 12 17  1  0  0  0  0
 17 18  1  0  0  0  0
 17 19  1  0  0  0  0
 17 20  1  0  0  0  0
M  END
> <ID>
CPD_3590

$$$$
CPD_3595
  Mrv1822 09091914012D          

 20 21  0  0  0  0            999 V2000
    1.4289   -0.0000    0.0000 C   0  0  0  0  0  0  0  0  0  0  0  0
    0.7145   -0.4125    0.0000 N   0  0  0  0  0  0  0  0  0  0  0  0
    0.7145   -1.2375    0.0000 C   0  0  0  0  0  0  0  0  0  0  0  0
    1.3819   -1.7224    0.0000 C   0  0  0  0  0  0  0  0  0  0  0  0
    2.1665   -1.4675    0.0000 C   0  0  0  0  0  0  0  0  0  0  0  0
    1.1270   -2.5070    0.0000 N   0  0  0  0  0  0  0  0  0  0  0  0
    0.3020   -2.5070    0.0000 C   0  0  0  0  0  0  0  0  0  0  0  0
   -0.1830   -3.1745    0.0000 S   0  0  0  0  0  0  0  0  0  0  0  0
    0.0470   -1.7224    0.0000 N   0  0  0  0  0  0  0  0  0  0  0  0
   -0.7376   -1.4675    0.0000 C   0  0  0  0  0  0  0  0  0  0  0  0
   -1.3507   -2.0195    0.0000 C   0  0  0  0  0  0  0  0  0  0  0  0
   -2.1353   -1.7646    0.0000 C   0  0  0  0  0  0  0  0  0  0  0  0
   -2.3068   -0.9576    0.0000 C   0  0  0  0  0  0  0  0  0  0  0  0
   -3.0915   -0.7027    0.0000 Cl  0  0  0  0  0  0  0  0  0  0  0  0
   -1.6937   -0.4056    0.0000 C   0  0  0  0  0  0  0  0  0  0  0  0
   -0.9091   -0.6605    0.0000 C   0  0  0  0  0  0  0  0  0  0  0  0
   -2.7484   -2.3166    0.0000 C   0  0  0  0  0  0  0  0  0  0  0  0
   -3.3615   -2.8686    0.0000 F   0  0  0  0  0  0  0  0  0  0  0  0
   -3.3004   -1.7035    0.0000 F   0  0  0  0  0  0  0  0  0  0  0  0
   -2.1964   -2.9297    0.0000 F   0  0  0  0  0  0  0  0  0  0  0  0
  1  2  1  0  0  0  0
  2  3  1  0  0  0  0
  3  4  2  0  0  0  0
  4  5  1  0  0  0  0
  4  6  1  0  0  0  0
  6  7  1  0  0  0  0
  7  8  2  0  0  0  0
  7  9  1  0  0  0  0
  3  9  1  0  0  0  0
  9 10  1  0  0  0  0
 10 11  2  0  0  0  0
 11 12  1  0  0  0  0
 12 13  2  0  0  0  0
 13 14  1  0  0  0  0
 13 15  1  0  0  0  0
 15 16  2  0  0  0  0
 10 16  1  0  0  0  0
 12 17  1  0  0  0  0
 17 18  1  0  0  0  0
 17 19  1  0  0  0  0
 17 20  1  0  0  0  0
M  END
> <ID>
CPD_3595

$$$$
CPD_3600
  Mrv1822 09091914012D          

 22 23  0  0  0  0            999 V2000
   -3.9159   -5.3615    0.0000 C   0  0  0  0  0  0  0  0  0  0  0  0
   -3.1089   -5.1900    0.0000 N   0  0  0  0  0  0  0  0  0  0  0  0
   -2.8540   -4.4054    0.0000 C   0  0  0  0  0  0  0  0  0  0  0  0
   -3.4060   -3.7923    0.0000 O   0  0  0  0  0  0  0  0  0  0  0  0
   -2.0470   -4.2338    0.0000 C   0  0  0  0  0  0  0  0  0  0  0  0
   -1.8755   -5.0408    0.0000 C   0  0  0  0  0  0  0  0  0  0  0  0
   -2.2185   -3.4269    0.0000 C   0  0  0  0  0  0  0  0  0  0  0  0
   -1.2400   -4.0623    0.0000 N   0  0  0  0  0  0  0  0  0  0  0  0
   -0.9851   -3.2777    0.0000 C   0  0  0  0  0  0  0  0  0  0  0  0
   -0.1781   -3.1062    0.0000 C   0  0  0  0  0  0  0  0  0  0  0  0
    0.3739   -3.7192    0.0000 O   0  0  0  0  0  0  0  0  0  0  0  0
    0.0768   -2.3215    0.0000 C   0  0  0  0  0  0  0  0  0  0  0  0
    0.8838   -2.1500    0.0000 O   0  0  0  0  0  0  0  0  0  0  0  0
    1.1387   -1.3654    0.0000 C   0  0  0  0  0  0  0  0  0  0  0  0
    0.6538   -0.6979    0.0000 N   0  0  0  0  0  0  0  0  0  0  0  0
    1.1387   -0.0305    0.0000 O   0  0  0  0  0  0  0  0  0  0  0  0
    1.9233   -0.2854    0.0000 C   0  0  0  0  0  0  0  0  0  0  0  0
    2.6378    0.1271    0.0000 C   0  0  0  0  0  0  0  0  0  0  0  0
    3.3523   -0.2854    0.0000 C   0  0  0  0  0  0  0  0  0  0  0  0
    3.3523   -1.1104    0.0000 C   0  0  0  0  0  0  0  0  0  0  0  0
    2.6378   -1.5229    0.0000 C   0  0  0  0  0  0  0  0  0  0  0  0
    1.9233   -1.1104    0.0000 C   0  0  0  0  0  0  0  0  0  0  0  0
  1  2  1  0  0  0  0
  2  3  1  0  0  0  0
  3  4  2  0  0  0  0
  3  5  1  0  0  0  0
  5  6  1  0  0  0  0
  5  7  1  0  0  0  0
  5  8  1  0  0  0  0
  8  9  1  0  0  0  0
  9 10  1  0  0  0  0
 10 11  1  0  0  0  0
 10 12  1  0  0  0  0
 12 13  1  0  0  0  0
 13 14  1  0  0  0  0
 14 15  2  0  0  0  0
 15 16  1  0  0  0  0
 16 17  1  0  0  0  0
 17 18  2  0  0  0  0
 18 19  1  0  0  0  0
 19 20  2  0  0  0  0
 20 21  1  0  0  0  0
 21 22  2  0  0  0  0
 14 22  1  0  0  0  0
 17 22  1  0  0  0  0
M  END
> <ID>
CPD_3600

$$$$
CPD_3605
  Mrv1822 09091914012D          

 25 26  0  0  0  0            999 V2000
   -0.7145   -1.2375    0.0000 C   0  0  0  0  0  0  0  0  0  0  0  0
    0.0000   -1.6500    0.0000 C   0  0  0  0  0  0  0  0  0  0  0  0
    0.0000   -2.4750    0.0000 C   0  0  0  0  0  0  0  0  0  0  0  0
   -0.7145   -2.8875    0.0000 C   0  0  0  0  0  0  0  0  0  0  0  0
   -1.4289   -2.4750    0.0000 O   0  0  0  0  0  0  0  0  0  0  0  0
    0.7145   -2.8875    0.0000 N   0  0  0  0  0  0  0  0  0  0  0  0
    0.7145   -3.7125    0.0000 C   0  0  0  0  0  0  0  0  0  0  0  0
    0.0000   -4.1250    0.0000 C   0  0  0  0  0  0  0  0  0  0  0  0
    0.0000   -4.9500    0.0000 C   0  0  0  0  0  0  0  0  0  0  0  0
    0.7145   -5.3625    0.0000 C   0  0  0  0  0  0  0  0  0  0  0  0
    0.7145   -6.1875    0.0000 C   0  0  0  0  0  0  0  0  0  0  0  0
    1.4289   -4.9500    0.0000 C   0  0  0  0  0  0  0  0  0  0  0  0
    2.1434   -5.3625    0.0000 Cl  0  0  0  0  0  0  0  0  0  0  0  0
    1.4289   -4.1250    0.0000 C   0  0  0  0  0  0  0  0  0  0  0  0
    1.4289   -2.4750    0.0000 S   0  0  0  0  0  0  0  0  0  0  0  0
    1.0164   -1.7605    0.0000 O   0  0  0  0  0  0  0  0  0  0  0  0
    1.8414   -3.1895    0.0000 O   0  0  0  0  0  0  0  0  0  0  0  0
    2.1434   -2.0625    0.0000 C   0  0  0  0  0  0  0  0  0  0  0  0
    2.1434   -1.2375    0.0000 C   0  0  0  0  0  0  0  0  0  0  0  0
    2.8579   -0.8250    0.0000 C   0  0  0  0  0  0  0  0  0  0  0  0
    3.5724   -1.2375    0.0000 C   0  0  0  0  0  0  0  0  0  0  0  0
    4.2868   -0.8250    0.0000 O   0  0  0  0  0  0  0  0  0  0  0  0
    4.2868   -0.0000    0.0000 C   0  0  0  0  0  0  0  0  0  0  0  0
    3.5724   -2.0625    0.0000 C   0  0  0  0  0  0  0  0  0  0  0  0
    2.8579   -2.4750    0.0000 C   0  0  0  0  0  0  0  0  0  0  0  0
  1  2  1  0  0  0  0
  2  3  1  0  0  0  0
  3  4  1  0  0  0  0
  4  5  1  0  0  0  0
  3  6  1  0  0  0  0
  6  7  1  0  0  0  0
  7  8  2  0  0  0  0
  8  9  1  0  0  0  0
  9 10  2  0  0  0  0
 10 11  1  0  0  0  0
 10 12  1  0  0  0  0
 12 13  1  0  0  0  0
 12 14  2  0  0  0  0
  7 14  1  0  0  0  0
  6 15  1  0  0  0  0
 15 16  2  0  0  0  0
 15 17  2  0  0  0  0
 15 18  1  0  0  0  0
 18 19  2  0  0  0  0
 19 20  1  0  0  0  0
 20 21  2  0  0  0  0
 21 22  1  0  0  0  0
 22 23  1  0  0  0  0
 21 24  1  0  0  0  0
 24 25  2  0  0  0  0
 18 25  1  0  0  0  0
M  END
> <ID>
CPD_3605

$$$$
CPD_3610
  Mrv1822 09091914012D          

 28 31  0  0  0  0            999 V2000
   -0.5983    1.9525    0.0000 C   0  0  0  0  0  0  0  0  0  0  0  0
    0.2244    1.8908    0.0000 C   0  0  0  0  0  0  0  0  0  0  0  0
    0.1627    1.0681    0.0000 C   0  0  0  0  0  0  0  0  0  0  0  0
    0.2860    2.7135    0.0000 C   0  0  0  0  0  0  0  0  0  0  0  0
    1.0471    1.8291    0.0000 N   0  0  0  0  0  0  0  0  0  0  0  0
    1.6724    2.3673    0.0000 C   0  0  0  0  0  0  0  0  0  0  0  0
    2.2105    1.7420    0.0000 C   0  0  0  0  0  0  0  0  0  0  0  0
    1.5852    1.2038    0.0000 C   0  0  0  0  0  0  0  0  0  0  0  0
    3.0332    1.6803    0.0000 N   0  0  0  0  0  0  0  0  0  0  0  0
    3.3912    0.9370    0.0000 C   0  0  0  0  0  0  0  0  0  0  0  0
    4.2162    0.9370    0.0000 C   0  0  0  0  0  0  0  0  0  0  0  0
    4.5741    1.6803    0.0000 O   0  0  0  0  0  0  0  0  0  0  0  0
    4.7305    0.2920    0.0000 C   0  0  0  0  0  0  0  0  0  0  0  0
    4.5470   -0.5123    0.0000 C   0  0  0  0  0  0  0  0  0  0  0  0
    5.1517   -1.0735    0.0000 C   0  0  0  0  0  0  0  0  0  0  0  0
    5.9401   -0.8303    0.0000 C   0  0  0  0  0  0  0  0  0  0  0  0
    6.1237   -0.0260    0.0000 C   0  0  0  0  0  0  0  0  0  0  0  0
    5.5189    0.5352    0.0000 C   0  0  0  0  0  0  0  0  0  0  0  0
    3.8037   -0.8703    0.0000 N   0  0  0  0  0  0  0  0  0  0  0  0
    3.8037   -1.6953    0.0000 C   0  0  0  0  0  0  0  0  0  0  0  0
    3.0892   -2.1078    0.0000 N   0  0  0  0  0  0  0  0  0  0  0  0
    4.5181   -2.1078    0.0000 O   0  0  0  0  0  0  0  0  0  0  0  0
    3.0604   -0.5123    0.0000 C   0  0  0  0  0  0  0  0  0  0  0  0
    2.8768    0.2920    0.0000 C   0  0  0  0  0  0  0  0  0  0  0  0
    2.0884    0.5352    0.0000 C   0  0  0  0  0  0  0  0  0  0  0  0
    1.4837   -0.0260    0.0000 C   0  0  0  0  0  0  0  0  0  0  0  0
    1.6673   -0.8303    0.0000 C   0  0  0  0  0  0  0  0  0  0  0  0
    2.4556   -1.0735    0.0000 C   0  0  0  0  0  0  0  0  0  0  0  0
  1  2  1  0  0  0  0
  2  3  1  0  0  0  0
  2  4  1  0  0  0  0
  2  5  1  0  0  0  0
  5  6  1  0  0  0  0
  6  7  1  0  0  0  0
  7  8  1  0  0  0  0
  5  8  1  0  0  0  0
  7  9  1  0  0  0  0
  9 10  1  0  0  0  0
 10 11  1  0  0  0  0
 11 12  1  0  0  0  0
 11 13  1  0  0  0  0
 13 14  2  0  0  0  0
 14 15  1  0  0  0  0
 15 16  2  0  0  0  0
 16 17  1  0  0  0  0
 17 18  2  0  0  0  0
 13 18  1  0  0  0  0
 14 19  1  0  0  0  0
 19 20  1  0  0  0  0
 20 21  1  0  0  0  0
 20 22  2  0  0  0  0
 19 23  1  0  0  0  0
 23 24  2  0  0  0  0
 10 24  1  0  0  0  0
 24 25  1  0  0  0  0
 25 26  2  0  0  0  0
 26 27  1  0  0  0  0
 27 28  2  0  0  0  0
 23 28  1  0  0  0  0
M  END
> <ID>
CPD_3610

$$$$
CPD_3615
  Mrv1822 09091914012D          

 35 38  0  0  0  0            999 V2000
   -5.0922   -2.1323    0.0000 C   0  0  0  0  0  0  0  0  0  0  0  0
   -4.2953   -2.3458    0.0000 C   0  0  0  0  0  0  0  0  0  0  0  0
   -4.5089   -3.1427    0.0000 C   0  0  0  0  0  0  0  0  0  0  0  0
   -4.0818   -1.5489    0.0000 C   0  0  0  0  0  0  0  0  0  0  0  0
   -3.4985   -2.5593    0.0000 O   0  0  0  0  0  0  0  0  0  0  0  0
   -3.2849   -3.3562    0.0000 C   0  0  0  0  0  0  0  0  0  0  0  0
   -3.8683   -3.9396    0.0000 O   0  0  0  0  0  0  0  0  0  0  0  0
   -2.4880   -3.5697    0.0000 N   0  0  0  0  0  0  0  0  0  0  0  0
   -1.9047   -2.9864    0.0000 C   0  0  0  0  0  0  0  0  0  0  0  0
   -1.1078   -3.1999    0.0000 C   0  0  0  0  0  0  0  0  0  0  0  0
   -0.8943   -3.9968    0.0000 C   0  0  0  0  0  0  0  0  0  0  0  0
   -1.4776   -4.5802    0.0000 C   0  0  0  0  0  0  0  0  0  0  0  0
   -2.2745   -4.3666    0.0000 C   0  0  0  0  0  0  0  0  0  0  0  0
   -2.8579   -4.9500    0.0000 C   0  0  0  0  0  0  0  0  0  0  0  0
   -3.4412   -4.3666    0.0000 O   0  0  0  0  0  0  0  0  0  0  0  0
   -2.2745   -5.5334    0.0000 C   0  0  0  0  0  0  0  0  0  0  0  0
   -2.8579   -6.1167    0.0000 N   0  0  0  0  0  0  0  0  0  0  0  0
   -2.8579   -6.9417    0.0000 C   0  0  0  0  0  0  0  0  0  0  0  0
   -3.5724   -7.3542    0.0000 C   0  0  0  0  0  0  0  0  0  0  0  0
   -4.2868   -6.9417    0.0000 O   0  0  0  0  0  0  0  0  0  0  0  0
   -3.5724   -8.1792    0.0000 C   0  0  0  0  0  0  0  0  0  0  0  0
   -4.2868   -8.5917    0.0000 N   0  0  0  0  0  0  0  0  0  0  0  0
   -4.2868   -9.4167    0.0000 C   0  0  0  0  0  0  0  0  0  0  0  0
   -5.0013   -9.8292    0.0000 C   0  0  0  0  0  0  0  0  0  0  0  0
   -5.7158   -9.4167    0.0000 C   0  0  0  0  0  0  0  0  0  0  0  0
   -6.4302   -9.8292    0.0000 C   0  0  0  0  0  0  0  0  0  0  0  0
   -6.4302  -10.6542    0.0000 C   0  0  0  0  0  0  0  0  0  0  0  0
   -5.7158  -11.0667    0.0000 C   0  0  0  0  0  0  0  0  0  0  0  0
   -5.7158  -11.8917    0.0000 C   0  0  0  0  0  0  0  0  0  0  0  0
   -6.4302  -12.3042    0.0000 C   0  0  0  0  0  0  0  0  0  0  0  0
   -7.1447  -11.8917    0.0000 C   0  0  0  0  0  0  0  0  0  0  0  0
   -7.1447  -11.0667    0.0000 C   0  0  0  0  0  0  0  0  0  0  0  0
   -5.7158   -8.5917    0.0000 C   0  0  0  0  0  0  0  0  0  0  0  0
   -5.0013   -8.1792    0.0000 C   0  0  0  0  0  0  0  0  0  0  0  0
   -3.4412   -5.5334    0.0000 C   0  0  0  0  0  0  0  0  0  0  0  0
  1  2  1  0  0  0  0
  2  3  1  0  0  0  0
  2  4  1  0  0  0  0
  2  5  1  0  0  0  0
  5  6  1  0  0  0  0
  6  7  2  0  0  0  0
  6  8  1  0  0  0  0
  8  9  1  0  0  0  0
  9 10  1  0  0  0  0
 10 11  1  0  0  0  0
 11 12  1  0  0  0  0
 12 13  1  0  0  0  0
  8 13  1  0  0  0  0
 13 14  1  0  0  0  0
 14 15  1  0  0  0  0
 14 16  1  0  0  0  0
 16 17  1  0  0  0  0
 17 18  1  0  0  0  0
 18 19  1  0  0  0  0
 19 20  1  0  0  0  0
 19 21  1  0  0  0  0
 21 22  1  0  0  0  0
 22 23  1  0  0  0  0
 23 24  1  0  0  0  0
 24 25  1  0  0  0  0
 25 26  1  0  0  0  0
 26 27  1  0  0  0  0
 27 28  2  0  0  0  0
 28 29  1  0  0  0  0
 29 30  2  0  0  0  0
 30 31  1  0  0  0  0
 31 32  2  0  0  0  0
 27 32  1  0  0  0  0
 25 33  1  0  0  0  0
 33 34  1  0  0  0  0
 22 34  1  0  0  0  0
 17 35  1  0  0  0  0
 14 35  1  0  0  0  0
M  END
> <ID>
CPD_3615

$$$$
CPD_3620
  Mrv1822 09091914012D          

 36 39  0  0  0  0            999 V2000
   -8.0084   -1.7309    0.0000 C   0  0  0  0  0  0  0  0  0  0  0  0
   -7.1834   -1.7309    0.0000 C   0  0  0  0  0  0  0  0  0  0  0  0
   -6.7709   -1.0164    0.0000 C   0  0  0  0  0  0  0  0  0  0  0  0
   -5.9459   -1.0164    0.0000 C   0  0  0  0  0  0  0  0  0  0  0  0
   -5.5334   -0.3020    0.0000 C   0  0  0  0  0  0  0  0  0  0  0  0
   -4.7084   -0.3020    0.0000 S   0  0  0  0  0  0  0  0  0  0  0  0
   -4.7084   -1.1270    0.0000 O   0  0  0  0  0  0  0  0  0  0  0  0
   -4.7084    0.5230    0.0000 O   0  0  0  0  0  0  0  0  0  0  0  0
   -3.8834   -0.3020    0.0000 N   0  0  0  0  0  0  0  0  0  0  0  0
   -3.4709    0.4125    0.0000 C   0  0  0  0  0  0  0  0  0  0  0  0
   -2.6459    0.4125    0.0000 C   0  0  0  0  0  0  0  0  0  0  0  0
   -2.2334   -0.3020    0.0000 C   0  0  0  0  0  0  0  0  0  0  0  0
   -2.6459   -1.0164    0.0000 C   0  0  0  0  0  0  0  0  0  0  0  0
   -3.4709   -1.0164    0.0000 C   0  0  0  0  0  0  0  0  0  0  0  0
   -1.4084   -0.3020    0.0000 C   0  0  0  0  0  0  0  0  0  0  0  0
   -0.9959   -1.0164    0.0000 O   0  0  0  0  0  0  0  0  0  0  0  0
   -0.9959    0.4125    0.0000 O   0  0  0  0  0  0  0  0  0  0  0  0
   -0.1709    0.4125    0.0000 C   0  0  0  0  0  0  0  0  0  0  0  0
    0.4125    0.9959    0.0000 C   0  0  0  0  0  0  0  0  0  0  0  0
    0.9959    0.4125    0.0000 C   0  0  0  0  0  0  0  0  0  0  0  0
    0.4125   -0.1709    0.0000 C   0  0  0  0  0  0  0  0  0  0  0  0
    1.4084    1.1270    0.0000 C   0  0  0  0  0  0  0  0  0  0  0  0
    2.2334    1.1270    0.0000 C   0  0  0  0  0  0  0  0  0  0  0  0
    2.6459    0.4125    0.0000 N   0  0  0  0  0  0  0  0  0  0  0  0
    2.2334   -0.3020    0.0000 C   0  0  0  0  0  0  0  0  0  0  0  0
    1.4084   -0.3020    0.0000 C   0  0  0  0  0  0  0  0  0  0  0  0
    3.4709    0.4125    0.0000 C   0  0  0  0  0  0  0  0  0  0  0  0
    3.8834    1.1270    0.0000 O   0  0  0  0  0  0  0  0  0  0  0  0
    3.8834   -0.3020    0.0000 O   0  0  0  0  0  0  0  0  0  0  0  0
    4.7084   -0.3020    0.0000 C   0  0  0  0  0  0  0  0  0  0  0  0
    5.5334   -0.3020    0.0000 C   0  0  0  0  0  0  0  0  0  0  0  0
    4.7084   -1.1270    0.0000 C   0  0  0  0  0  0  0  0  0  0  0  0
    4.7084    0.5230    0.0000 C   0  0  0  0  0  0  0  0  0  0  0  0
   -5.5334   -1.7309    0.0000 C   0  0  0  0  0  0  0  0  0  0  0  0
   -5.9459   -2.4454    0.0000 C   0  0  0  0  0  0  0  0  0  0  0  0
   -6.7709   -2.4454    0.0000 C   0  0  0  0  0  0  0  0  0  0  0  0
  1  2  1  0  0  0  0
  2  3  2  0  0  0  0
  3  4  1  0  0  0  0
  4  5  1  0  0  0  0
  5  6  1  0  0  0  0
  6  7  2  0  0  0  0
  6  8  2  0  0  0  0
  6  9  1  0  0  0  0
  9 10  1  0  0  0  0
 10 11  1  0  0  0  0
 11 12  1  0  0  0  0
 12 13  1  0  0  0  0
 13 14  1  0  0  0  0
  9 14  1  0  0  0  0
 12 15  1  0  0  0  0
 15 16  2  0  0  0  0
 15 17  1  0  0  0  0
 17 18  1  0  0  0  0
 18 19  1  0  0  0  0
 19 20  1  0  0  0  0
 20 21  1  0  0  0  0
 18 21  1  0  0  0  0
 20 22  1  0  0  0  0
 22 23  1  0  0  0  0
 23 24  1  0  0  0  0
 24 25  1  0  0  0  0
 25 26  1  0  0  0  0
 20 26  1  0  0  0  0
 24 27  1  0  0  0  0
 27 28  2  0  0  0  0
 27 29  1  0  0  0  0
 29 30  1  0  0  0  0
 30 31  1  0  0  0  0
 30 32  1  0  0  0  0
 30 33  1  0  0  0  0
  4 34  2  0  0  0  0
 34 35  1  0  0  0  0
 35 36  2  0  0  0  0
  2 36  1  0  0  0  0
M  END
> <ID>
CPD_3620

$$$$
CPD_3625
  Mrv1822 09091914012D          

 34 37  0  0  0  0            999 V2000
   -4.2868   -5.7750    0.0000 C   0  0  0  0  0  0  0  0  0  0  0  0
   -4.2868   -6.6000    0.0000 C   0  0  0  0  0  0  0  0  0  0  0  0
   -3.5724   -7.0125    0.0000 C   0  0  0  0  0  0  0  0  0  0  0  0
   -3.5724   -7.8375    0.0000 C   0  0  0  0  0  0  0  0  0  0  0  0
   -2.8579   -8.2500    0.0000 C   0  0  0  0  0  0  0  0  0  0  0  0
   -2.8579   -9.0750    0.0000 S   0  0  0  0  0  0  0  0  0  0  0  0
   -3.6829   -9.0750    0.0000 O   0  0  0  0  0  0  0  0  0  0  0  0
   -2.0329   -9.0750    0.0000 O   0  0  0  0  0  0  0  0  0  0  0  0
   -2.8579   -9.9000    0.0000 N   0  0  0  0  0  0  0  0  0  0  0  0
   -2.1434  -10.3125    0.0000 C   0  0  0  0  0  0  0  0  0  0  0  0
   -2.1434  -11.1375    0.0000 C   0  0  0  0  0  0  0  0  0  0  0  0
   -2.8579  -11.5500    0.0000 C   0  0  0  0  0  0  0  0  0  0  0  0
   -3.5724  -11.1375    0.0000 C   0  0  0  0  0  0  0  0  0  0  0  0
   -3.5724  -10.3125    0.0000 C   0  0  0  0  0  0  0  0  0  0  0  0
   -2.8579  -12.3750    0.0000 C   0  0  0  0  0  0  0  0  0  0  0  0
   -3.5724  -12.7875    0.0000 O   0  0  0  0  0  0  0  0  0  0  0  0
   -2.1434  -12.7875    0.0000 O   0  0  0  0  0  0  0  0  0  0  0  0
   -2.1434  -13.6125    0.0000 C   0  0  0  0  0  0  0  0  0  0  0  0
   -1.4289  -14.0250    0.0000 C   0  0  0  0  0  0  0  0  0  0  0  0
   -1.4289  -14.8500    0.0000 C   0  0  0  0  0  0  0  0  0  0  0  0
   -2.1434  -15.2625    0.0000 C   0  0  0  0  0  0  0  0  0  0  0  0
   -2.8579  -14.8500    0.0000 C   0  0  0  0  0  0  0  0  0  0  0  0
   -2.8579  -14.0250    0.0000 C   0  0  0  0  0  0  0  0  0  0  0  0
   -3.5724  -13.6125    0.0000 Cl  0  0  0  0  0  0  0  0  0  0  0  0
   -0.7145  -15.2625    0.0000 C   0  0  0  0  0  0  0  0  0  0  0  0
   -0.0000  -14.8500    0.0000 C   0  0  0  0  0  0  0  0  0  0  0  0
    0.7145  -15.2625    0.0000 C   0  0  0  0  0  0  0  0  0  0  0  0
    0.7145  -16.0875    0.0000 C   0  0  0  0  0  0  0  0  0  0  0  0
   -0.0000  -16.5000    0.0000 C   0  0  0  0  0  0  0  0  0  0  0  0
   -0.7145  -16.0875    0.0000 C   0  0  0  0  0  0  0  0  0  0  0  0
   -1.4289  -16.5000    0.0000 F   0  0  0  0  0  0  0  0  0  0  0  0
   -4.2868   -8.2500    0.0000 C   0  0  0  0  0  0  0  0  0  0  0  0
   -5.0013   -7.8375    0.0000 C   0  0  0  0  0  0  0  0  0  0  0  0
   -5.0013   -7.0125    0.0000 C   0  0  0  0  0  0  0  0  0  0  0  0
  1  2  1  0  0  0  0
  2  3  2  0  0  0  0
  3  4  1  0  0  0  0
  4  5  1  0  0  0  0
  5  6  1  0  0  0  0
  6  7  2  0  0  0  0
  6  8  2  0  0  0  0
  6  9  1  0  0  0  0
  9 10  1  0  0  0  0
 10 11  1  0  0  0  0
 11 12  1  0  0  0  0
 12 13  1  0  0  0  0
 13 14  1  0  0  0  0
  9 14  1  0  0  0  0
 12 15  1  0  0  0  0
 15 16  2  0  0  0  0
 15 17  1  0  0  0  0
 17 18  1  0  0  0  0
 18 19  2  0  0  0  0
 19 20  1  0  0  0  0
 20 21  2  0  0  0  0
 21 22  1  0  0  0  0
 22 23  2  0  0  0  0
 18 23  1  0  0  0  0
 23 24  1  0  0  0  0
 20 25  1  0  0  0  0
 25 26  2  0  0  0  0
 26 27  1  0  0  0  0
 27 28  2  0  0  0  0
 28 29  1  0  0  0  0
 29 30  2  0  0  0  0
 25 30  1  0  0  0  0
 30 31  1  0  0  0  0
  4 32  2  0  0  0  0
 32 33  1  0  0  0  0
 33 34  2  0  0  0  0
  2 34  1  0  0  0  0
M  END
> <ID>
CPD_3625

$$$$
CPD_3630
  Mrv1822 09091914012D          

 27 27  0  0  0  0            999 V2000
    0.7145   -3.7125    0.0000 C   0  0  0  0  0  0  0  0  0  0  0  0
    0.0000   -3.3000    0.0000 C   0  0  0  0  0  0  0  0  0  0  0  0
   -0.7145   -3.7125    0.0000 C   0  0  0  0  0  0  0  0  0  0  0  0
   -0.7145   -4.5375    0.0000 Cl  0  0  0  0  0  0  0  0  0  0  0  0
   -1.4289   -3.3000    0.0000 C   0  0  0  0  0  0  0  0  0  0  0  0
   -1.4289   -2.4750    0.0000 C   0  0  0  0  0  0  0  0  0  0  0  0
   -0.7145   -2.0625    0.0000 C   0  0  0  0  0  0  0  0  0  0  0  0
    0.0000   -2.4750    0.0000 C   0  0  0  0  0  0  0  0  0  0  0  0
    0.7145   -2.0625    0.0000 N   0  0  0  0  0  0  0  0  0  0  0  0
    1.4289   -2.4750    0.0000 C   0  0  0  0  0  0  0  0  0  0  0  0
    2.1434   -2.0625    0.0000 C   0  0  0  0  0  0  0  0  0  0  0  0
    2.8579   -2.4750    0.0000 C   0  0  0  0  0  0  0  0  0  0  0  0
    3.5724   -2.0625    0.0000 C   0  0  0  0  0  0  0  0  0  0  0  0
    3.5724   -1.2375    0.0000 O   0  0  0  0  0  0  0  0  0  0  0  0
    4.2868   -2.4750    0.0000 O   0  0  0  0  0  0  0  0  0  0  0  0
    5.0013   -2.0625    0.0000 C   0  0  0  0  0  0  0  0  0  0  0  0
    5.7158   -2.4750    0.0000 C   0  0  0  0  0  0  0  0  0  0  0  0
    6.4302   -2.0625    0.0000 C   0  0  0  0  0  0  0  0  0  0  0  0
    7.1447   -2.4750    0.0000 C   0  0  0  0  0  0  0  0  0  0  0  0
    7.8592   -2.0625    0.0000 C   0  0  0  0  0  0  0  0  0  0  0  0
    8.5737   -2.4750    0.0000 C   0  0  0  0  0  0  0  0  0  0  0  0
    9.2881   -2.0625    0.0000 O   0  0  0  0  0  0  0  0  0  0  0  0
    8.5737   -3.3000    0.0000 O   0  0  0  0  0  0  0  0  0  0  0  0
    0.7145   -1.2375    0.0000 S   0  0  0  0  0  0  0  0  0  0  0  0
    0.7145   -0.4125    0.0000 C   0  0  0  0  0  0  0  0  0  0  0  0
    1.5395   -1.2375    0.0000 O   0  0  0  0  0  0  0  0  0  0  0  0
   -0.1105   -1.2375    0.0000 O   0  0  0  0  0  0  0  0  0  0  0  0
  1  2  1  0  0  0  0
  2  3  2  0  0  0  0
  3  4  1  0  0  0  0
  3  5  1  0  0  0  0
  5  6  2  0  0  0  0
  6  7  1  0  0  0  0
  7  8  2  0  0  0  0
  2  8  1  0  0  0  0
  8  9  1  0  0  0  0
  9 10  1  0  0  0  0
 10 11  1  0  0  0  0
 11 12  1  0  0  0  0
 12 13  1  0  0  0  0
 13 14  2  0  0  0  0
 13 15  1  0  0  0  0
 15 16  1  0  0  0  0
 16 17  1  0  0  0  0
 17 18  1  0  0  0  0
 18 19  1  0  0  0  0
 19 20  1  0  0  0  0
 20 21  1  0  0  0  0
 21 22  1  0  0  0  0
 21 23  2  0  0  0  0
  9 24  1  0  0  0  0
 24 25  1  0  0  0  0
 24 26  2  0  0  0  0
 24 27  2  0  0  0  0
M  END
> <ID>
CPD_3630

$$$$
CPD_3635
  Mrv1822 09091914012D          

 35 36  0  0  0  0            999 V2000
    3.9039   -3.0789    0.0000 C   0  0  0  0  0  0  0  0  0  0  0  0
    3.0789   -3.0789    0.0000 C   0  0  0  0  0  0  0  0  0  0  0  0
    2.6664   -2.3645    0.0000 C   0  0  0  0  0  0  0  0  0  0  0  0
    1.8414   -2.3645    0.0000 N   0  0  0  0  0  0  0  0  0  0  0  0
    1.4289   -3.0789    0.0000 C   0  0  0  0  0  0  0  0  0  0  0  0
    1.8414   -3.7934    0.0000 C   0  0  0  0  0  0  0  0  0  0  0  0
    1.4289   -4.5079    0.0000 C   0  0  0  0  0  0  0  0  0  0  0  0
    1.8414   -5.2224    0.0000 Cl  0  0  0  0  0  0  0  0  0  0  0  0
    0.6039   -4.5079    0.0000 C   0  0  0  0  0  0  0  0  0  0  0  0
    0.1914   -5.2224    0.0000 O   0  0  0  0  0  0  0  0  0  0  0  0
   -0.6336   -5.2224    0.0000 C   0  0  0  0  0  0  0  0  0  0  0  0
    0.1914   -3.7934    0.0000 C   0  0  0  0  0  0  0  0  0  0  0  0
    0.6039   -3.0789    0.0000 C   0  0  0  0  0  0  0  0  0  0  0  0
    1.4289   -1.6500    0.0000 S   0  0  0  0  0  0  0  0  0  0  0  0
    2.1434   -1.2375    0.0000 C   0  0  0  0  0  0  0  0  0  0  0  0
    0.7145   -2.0625    0.0000 O   0  0  0  0  0  0  0  0  0  0  0  0
    1.0164   -0.9355    0.0000 O   0  0  0  0  0  0  0  0  0  0  0  0
    3.0789   -1.6500    0.0000 C   0  0  0  0  0  0  0  0  0  0  0  0
    2.6664   -0.9355    0.0000 O   0  0  0  0  0  0  0  0  0  0  0  0
    3.9039   -1.6500    0.0000 O   0  0  0  0  0  0  0  0  0  0  0  0
    4.3164   -0.9355    0.0000 C   0  0  0  0  0  0  0  0  0  0  0  0
    3.9809   -0.1819    0.0000 C   0  0  0  0  0  0  0  0  0  0  0  0
    4.5940    0.3702    0.0000 C   0  0  0  0  0  0  0  0  0  0  0  0
    4.5077    1.1907    0.0000 O   0  0  0  0  0  0  0  0  0  0  0  0
    5.3084   -0.0423    0.0000 N   0  0  0  0  0  0  0  0  0  0  0  0
    6.0621    0.2932    0.0000 C   0  0  0  0  0  0  0  0  0  0  0  0
    6.1484    1.1137    0.0000 O   0  0  0  0  0  0  0  0  0  0  0  0
    6.7296   -0.1917    0.0000 O   0  0  0  0  0  0  0  0  0  0  0  0
    7.4832    0.1439    0.0000 C   0  0  0  0  0  0  0  0  0  0  0  0
    8.2369    0.4794    0.0000 C   0  0  0  0  0  0  0  0  0  0  0  0
    7.8188   -0.6098    0.0000 C   0  0  0  0  0  0  0  0  0  0  0  0
    7.1477    0.8975    0.0000 C   0  0  0  0  0  0  0  0  0  0  0  0
    5.1369   -0.8493    0.0000 C   0  0  0  0  0  0  0  0  0  0  0  0
    5.9188   -1.1124    0.0000 C   0  0  0  0  0  0  0  0  0  0  0  0
    5.3169   -1.6544    0.0000 C   0  0  0  0  0  0  0  0  0  0  0  0
  1  2  1  0  0  0  0
  2  3  1  0  0  0  0
  3  4  1  0  0  0  0
  4  5  1  0  0  0  0
  5  6  2  0  0  0  0
  6  7  1  0  0  0  0
  7  8  1  0  0  0  0
  7  9  2  0  0  0  0
  9 10  1  0  0  0  0
 10 11  1  0  0  0  0
  9 12  1  0  0  0  0
 12 13  2  0  0  0  0
  5 13  1  0  0  0  0
  4 14  1  0  0  0  0
 14 15  1  0  0  0  0
 14 16  2  0  0  0  0
 14 17  2  0  0  0  0
  3 18  1  0  0  0  0
 18 19  2  0  0  0  0
 18 20  1  0  0  0  0
 20 21  1  0  0  0  0
 21 22  2  0  0  0  0
 22 23  1  0  0  0  0
 23 24  2  0  0  0  0
 23 25  1  0  0  0  0
 25 26  1  0  0  0  0
 26 27  2  0  0  0  0
 26 28  1  0  0  0  0
 28 29  1  0  0  0  0
 29 30  1  0  0  0  0
 29 31  1  0  0  0  0
 29 32  1  0  0  0  0
 25 33  1  0  0  0  0
 21 33  1  0  0  0  0
 33 34  1  0  0  0  0
 33 35  1  0  0  0  0
M  END
> <ID>
CPD_3635

$$$$
CPD_3640
  Mrv1822 09091914012D          

 26 27  0  0  0  0            999 V2000
    5.3329   -1.0461    0.0000 C   0  0  0  0  0  0  0  0  0  0  0  0
    4.5079   -1.0461    0.0000 C   0  0  0  0  0  0  0  0  0  0  0  0
    4.0954   -1.7605    0.0000 C   0  0  0  0  0  0  0  0  0  0  0  0
    3.2704   -1.7605    0.0000 N   0  0  0  0  0  0  0  0  0  0  0  0
    2.8579   -1.0461    0.0000 C   0  0  0  0  0  0  0  0  0  0  0  0
    2.0329   -1.0461    0.0000 C   0  0  0  0  0  0  0  0  0  0  0  0
    1.6204   -0.3316    0.0000 C   0  0  0  0  0  0  0  0  0  0  0  0
    0.7954   -0.3316    0.0000 Cl  0  0  0  0  0  0  0  0  0  0  0  0
    2.0329    0.3829    0.0000 C   0  0  0  0  0  0  0  0  0  0  0  0
    1.6204    1.0974    0.0000 C   0  0  0  0  0  0  0  0  0  0  0  0
    2.8579    0.3829    0.0000 C   0  0  0  0  0  0  0  0  0  0  0  0
    3.2704   -0.3316    0.0000 C   0  0  0  0  0  0  0  0  0  0  0  0
    2.8579   -2.4750    0.0000 S   0  0  0  0  0  0  0  0  0  0  0  0
    2.1434   -2.0625    0.0000 C   0  0  0  0  0  0  0  0  0  0  0  0
    3.5724   -2.8875    0.0000 O   0  0  0  0  0  0  0  0  0  0  0  0
    2.4454   -3.1895    0.0000 O   0  0  0  0  0  0  0  0  0  0  0  0
    4.5079   -2.4750    0.0000 C   0  0  0  0  0  0  0  0  0  0  0  0
    4.0954   -3.1895    0.0000 O   0  0  0  0  0  0  0  0  0  0  0  0
    5.3329   -2.4750    0.0000 O   0  0  0  0  0  0  0  0  0  0  0  0
    5.7454   -3.1895    0.0000 C   0  0  1  0  0  0  0  0  0  0  0  0
    6.5704   -3.1895    0.0000 C   0  0  0  0  0  0  0  0  0  0  0  0
    6.9829   -3.9039    0.0000 C   0  0  0  0  0  0  0  0  0  0  0  0
    6.5704   -4.6184    0.0000 C   0  0  2  0  0  0  0  0  0  0  0  0
    6.9829   -5.3329    0.0000 C   0  0  0  0  0  0  0  0  0  0  0  0
    5.7454   -4.6184    0.0000 C   0  0  0  0  0  0  0  0  0  0  0  0
    5.3329   -3.9039    0.0000 C   0  0  0  0  0  0  0  0  0  0  0  0
  1  2  1  0  0  0  0
  2  3  1  0  0  0  0
  3  4  1  0  0  0  0
  4  5  1  0  0  0  0
  5  6  2  0  0  0  0
  6  7  1  0  0  0  0
  7  8  1  0  0  0  0
  7  9  2  0  0  0  0
  9 10  1  0  0  0  0
  9 11  1  0  0  0  0
 11 12  2  0  0  0  0
  5 12  1  0  0  0  0
  4 13  1  0  0  0  0
 13 14  1  0  0  0  0
 13 15  2  0  0  0  0
 13 16  2  0  0  0  0
  3 17  1  0  0  0  0
 17 18  2  0  0  0  0
 17 19  1  0  0  0  0
 20 19  1  1  0  0  0
 20 21  1  0  0  0  0
 21 22  1  0  0  0  0
 23 22  1  0  0  0  0
 23 24  1  6  0  0  0
 23 25  1  0  0  0  0
 25 26  1  0  0  0  0
 20 26  1  0  0  0  0
M  END
> <ID>
CPD_3640

$$$$
CPD_3645
  Mrv1822 09091914012D          

 34 37  0  0  0  0            999 V2000
  -10.0026    4.1250    0.0000 C   0  0  0  0  0  0  0  0  0  0  0  0
   -9.2881    3.7125    0.0000 O   0  0  0  0  0  0  0  0  0  0  0  0
   -9.2881    2.8875    0.0000 C   0  0  0  0  0  0  0  0  0  0  0  0
   -8.5737    2.4750    0.0000 N   0  0  0  0  0  0  0  0  0  0  0  0
   -8.5737    1.6500    0.0000 C   0  0  0  0  0  0  0  0  0  0  0  0
   -7.8592    1.2375    0.0000 C   0  0  0  0  0  0  0  0  0  0  0  0
   -7.1447    1.6500    0.0000 C   0  0  0  0  0  0  0  0  0  0  0  0
   -6.4302    1.2375    0.0000 O   0  0  0  0  0  0  0  0  0  0  0  0
   -5.7158    1.6500    0.0000 C   0  0  0  0  0  0  0  0  0  0  0  0
   -5.7158    2.4750    0.0000 O   0  0  0  0  0  0  0  0  0  0  0  0
   -5.0013    1.2375    0.0000 C   0  0  0  0  0  0  0  0  0  0  0  0
   -4.2868    1.6500    0.0000 C   0  0  0  0  0  0  0  0  0  0  0  0
   -3.5724    1.2375    0.0000 C   0  0  0  0  0  0  0  0  0  0  0  0
   -2.8579    1.6500    0.0000 C   0  0  0  0  0  0  0  0  0  0  0  0
   -2.1434    1.2375    0.0000 C   0  0  0  0  0  0  0  0  0  0  0  0
   -2.1434    0.4125    0.0000 C   0  0  0  0  0  0  0  0  0  0  0  0
   -2.8579   -0.0000    0.0000 C   0  0  0  0  0  0  0  0  0  0  0  0
   -3.5724    0.4125    0.0000 C   0  0  0  0  0  0  0  0  0  0  0  0
   -1.4289   -0.0000    0.0000 S   0  0  0  0  0  0  0  0  0  0  0  0
   -1.8414   -0.7145    0.0000 O   0  0  0  0  0  0  0  0  0  0  0  0
   -1.0164    0.7145    0.0000 O   0  0  0  0  0  0  0  0  0  0  0  0
   -0.7145   -0.4125    0.0000 N   0  0  0  0  0  0  0  0  0  0  0  0
   -0.7145   -1.2375    0.0000 C   0  0  0  0  0  0  0  0  0  0  0  0
   -0.0000   -1.6500    0.0000 C   0  0  0  0  0  0  0  0  0  0  0  0
    0.7145   -1.2375    0.0000 C   0  0  0  0  0  0  0  0  0  0  0  0
    0.7145   -0.4125    0.0000 C   0  0  0  0  0  0  0  0  0  0  0  0
   -0.0000   -0.0000    0.0000 C   0  0  0  0  0  0  0  0  0  0  0  0
   -0.0000    0.8250    0.0000 C   0  0  0  0  0  0  0  0  0  0  0  0
    0.7145    1.2375    0.0000 C   0  0  0  0  0  0  0  0  0  0  0  0
    1.4289    0.8250    0.0000 C   0  0  0  0  0  0  0  0  0  0  0  0
    1.4289   -0.0000    0.0000 C   0  0  0  0  0  0  0  0  0  0  0  0
   -9.2881    1.2375    0.0000 C   0  0  0  0  0  0  0  0  0  0  0  0
  -10.0026    1.6500    0.0000 C   0  0  0  0  0  0  0  0  0  0  0  0
  -10.0026    2.4750    0.0000 C   0  0  0  0  0  0  0  0  0  0  0  0
  1  2  1  0  0  0  0
  2  3  1  0  0  0  0
  3  4  2  0  0  0  0
  4  5  1  0  0  0  0
  5  6  1  0  0  0  0
  6  7  1  0  0  0  0
  7  8  1  0  0  0  0
  8  9  1  0  0  0  0
  9 10  2  0  0  0  0
  9 11  1  0  0  0  0
 11 12  1  0  0  0  0
 12 13  1  0  0  0  0
 13 14  2  0  0  0  0
 14 15  1  0  0  0  0
 15 16  2  0  0  0  0
 16 17  1  0  0  0  0
 17 18  2  0  0  0  0
 13 18  1  0  0  0  0
 16 19  1  0  0  0  0
 19 20  2  0  0  0  0
 19 21  2  0  0  0  0
 19 22  1  0  0  0  0
 22 23  1  0  0  0  0
 23 24  1  0  0  0  0
 24 25  1  0  0  0  0
 25 26  1  0  0  0  0
 26 27  2  0  0  0  0
 22 27  1  0  0  0  0
 27 28  1  0  0  0  0
 28 29  2  0  0  0  0
 29 30  1  0  0  0  0
 30 31  2  0  0  0  0
 26 31  1  0  0  0  0
  5 32  2  0  0  0  0
 32 33  1  0  0  0  0
 33 34  2  0  0  0  0
  3 34  1  0  0  0  0
M  END
> <ID>
CPD_3645

$$$$
CPD_3650
  Mrv1822 09091914012D          

 35 38  0  0  0  0            999 V2000
   -1.4289   -2.4750    0.0000 F   0  0  0  0  0  0  0  0  0  0  0  0
   -2.1434   -2.8875    0.0000 C   0  0  0  0  0  0  0  0  0  0  0  0
   -2.8579   -2.4750    0.0000 C   0  0  0  0  0  0  0  0  0  0  0  0
   -3.5724   -2.8875    0.0000 C   0  0  0  0  0  0  0  0  0  0  0  0
   -3.5724   -3.7125    0.0000 C   0  0  0  0  0  0  0  0  0  0  0  0
   -2.8579   -4.1250    0.0000 C   0  0  0  0  0  0  0  0  0  0  0  0
   -2.8579   -4.9500    0.0000 Cl  0  0  0  0  0  0  0  0  0  0  0  0
   -2.1434   -3.7125    0.0000 C   0  0  0  0  0  0  0  0  0  0  0  0
   -1.4289   -4.1250    0.0000 C   0  0  0  0  0  0  0  0  0  0  0  0
   -0.7145   -3.7125    0.0000 N   0  0  0  0  0  0  0  0  0  0  0  0
   -0.7145   -2.8875    0.0000 C   0  0  0  0  0  0  0  0  0  0  0  0
    0.0000   -2.4750    0.0000 C   0  0  0  0  0  0  0  0  0  0  0  0
    0.7145   -2.8875    0.0000 O   0  0  0  0  0  0  0  0  0  0  0  0
    0.0000   -1.6500    0.0000 O   0  0  0  0  0  0  0  0  0  0  0  0
    0.7145   -1.2375    0.0000 C   0  0  0  0  0  0  0  0  0  0  0  0
    0.7145   -0.4125    0.0000 C   0  0  0  0  0  0  0  0  0  0  0  0
    1.4289    0.0000    0.0000 C   0  0  0  0  0  0  0  0  0  0  0  0
    2.1434   -0.4125    0.0000 C   0  0  0  0  0  0  0  0  0  0  0  0
    2.8579    0.0000    0.0000 O   0  0  0  0  0  0  0  0  0  0  0  0
    3.5724   -0.4125    0.0000 C   0  0  0  0  0  0  0  0  0  0  0  0
    3.5724   -1.2375    0.0000 C   0  0  0  0  0  0  0  0  0  0  0  0
    4.2868   -1.6500    0.0000 O   0  0  0  0  0  0  0  0  0  0  0  0
    2.8579   -1.6500    0.0000 N   0  0  0  0  0  0  0  0  0  0  0  0
    2.1434   -1.2375    0.0000 C   0  0  0  0  0  0  0  0  0  0  0  0
    1.4289   -1.6500    0.0000 C   0  0  0  0  0  0  0  0  0  0  0  0
    0.0000   -4.1250    0.0000 S   0  0  0  0  0  0  0  0  0  0  0  0
    0.4125   -3.4105    0.0000 O   0  0  0  0  0  0  0  0  0  0  0  0
    0.7145   -4.5375    0.0000 O   0  0  0  0  0  0  0  0  0  0  0  0
   -0.4125   -4.8395    0.0000 C   0  0  0  0  0  0  0  0  0  0  0  0
    0.0000   -5.5539    0.0000 C   0  0  0  0  0  0  0  0  0  0  0  0
   -0.4125   -6.2684    0.0000 C   0  0  0  0  0  0  0  0  0  0  0  0
   -1.2375   -6.2684    0.0000 C   0  0  0  0  0  0  0  0  0  0  0  0
   -1.6500   -6.9829    0.0000 Cl  0  0  0  0  0  0  0  0  0  0  0  0
   -1.6500   -5.5539    0.0000 C   0  0  0  0  0  0  0  0  0  0  0  0
   -1.2375   -4.8395    0.0000 C   0  0  0  0  0  0  0  0  0  0  0  0
  1  2  1  0  0  0  0
  2  3  2  0  0  0  0
  3  4  1  0  0  0  0
  4  5  2  0  0  0  0
  5  6  1  0  0  0  0
  6  7  1  0  0  0  0
  6  8  2  0  0  0  0
  2  8  1  0  0  0  0
  8  9  1  0  0  0  0
  9 10  1  0  0  0  0
 10 11  1  0  0  0  0
 11 12  1  0  0  0  0
 12 13  2  0  0  0  0
 12 14  1  0  0  0  0
 14 15  1  0  0  0  0
 15 16  2  0  0  0  0
 16 17  1  0  0  0  0
 17 18  2  0  0  0  0
 18 19  1  0  0  0  0
 19 20  1  0  0  0  0
 20 21  1  0  0  0  0
 21 22  2  0  0  0  0
 21 23  1  0  0  0  0
 23 24  1  0  0  0  0
 18 24  1  0  0  0  0
 24 25  2  0  0  0  0
 15 25  1  0  0  0  0
 10 26  1  0  0  0  0
 26 27  2  0  0  0  0
 26 28  2  0  0  0  0
 26 29  1  0  0  0  0
 29 30  2  0  0  0  0
 30 31  1  0  0  0  0
 31 32  2  0  0  0  0
 32 33  1  0  0  0  0
 32 34  1  0  0  0  0
 34 35  2  0  0  0  0
 29 35  1  0  0  0  0
M  END
> <ID>
CPD_3650

$$$$
CPD_3655
  Mrv1822 09091914012D          

 33 36  0  0  0  0            999 V2000
    2.1434   -6.1875    0.0000 O   0  0  0  0  0  0  0  0  0  0  0  0
    2.8579   -6.6000    0.0000 C   0  0  0  0  0  0  0  0  0  0  0  0
    3.5724   -6.1875    0.0000 O   0  0  0  0  0  0  0  0  0  0  0  0
    2.8579   -7.4250    0.0000 C   0  0  0  0  0  0  0  0  0  0  0  0
    3.5724   -7.8375    0.0000 C   0  0  0  0  0  0  0  0  0  0  0  0
    3.5724   -8.6625    0.0000 C   0  0  0  0  0  0  0  0  0  0  0  0
    2.8579   -9.0750    0.0000 C   0  0  0  0  0  0  0  0  0  0  0  0
    2.1434   -8.6625    0.0000 C   0  0  0  0  0  0  0  0  0  0  0  0
    2.1434   -7.8375    0.0000 C   0  0  0  0  0  0  0  0  0  0  0  0
    4.2868   -9.0750    0.0000 C   0  0  0  0  0  0  0  0  0  0  0  0
    5.0013   -8.6625    0.0000 C   0  0  0  0  0  0  0  0  0  0  0  0
    5.7158   -9.0750    0.0000 C   0  0  0  0  0  0  0  0  0  0  0  0
    6.4302   -8.6625    0.0000 C   0  0  0  0  0  0  0  0  0  0  0  0
    7.1447   -9.0750    0.0000 C   0  0  0  0  0  0  0  0  0  0  0  0
    7.1447   -9.9000    0.0000 O   0  0  0  0  0  0  0  0  0  0  0  0
    7.8592   -8.6625    0.0000 O   0  0  0  0  0  0  0  0  0  0  0  0
    8.5737   -9.0750    0.0000 C   0  0  0  0  0  0  0  0  0  0  0  0
    9.2881   -8.6625    0.0000 C   0  0  0  0  0  0  0  0  0  0  0  0
   10.0026   -9.0750    0.0000 C   0  0  0  0  0  0  0  0  0  0  0  0
   10.0026   -9.9000    0.0000 C   0  0  0  0  0  0  0  0  0  0  0  0
    9.2881  -10.3125    0.0000 C   0  0  0  0  0  0  0  0  0  0  0  0
    8.5737   -9.9000    0.0000 C   0  0  0  0  0  0  0  0  0  0  0  0
   10.7171  -10.3125    0.0000 N   0  0  0  0  0  0  0  0  0  0  0  0
   11.4315   -9.9000    0.0000 C   0  0  0  0  0  0  0  0  0  0  0  0
   11.4315   -9.0750    0.0000 O   0  0  0  0  0  0  0  0  0  0  0  0
   12.1460  -10.3125    0.0000 C   0  0  0  0  0  0  0  0  0  0  0  0
   12.1460  -11.1375    0.0000 C   0  0  0  0  0  0  0  0  0  0  0  0
   11.4315  -11.5500    0.0000 C   0  0  0  0  0  0  0  0  0  0  0  0
   10.7171  -11.1375    0.0000 C   0  0  0  0  0  0  0  0  0  0  0  0
   10.0026  -11.5500    0.0000 O   0  0  0  0  0  0  0  0  0  0  0  0
    5.7158   -9.9000    0.0000 C   0  0  0  0  0  0  0  0  0  0  0  0
    5.0013  -10.3125    0.0000 C   0  0  0  0  0  0  0  0  0  0  0  0
    4.2868   -9.9000    0.0000 C   0  0  0  0  0  0  0  0  0  0  0  0
  1  2  1  0  0  0  0
  2  3  2  0  0  0  0
  2  4  1  0  0  0  0
  4  5  2  0  0  0  0
  5  6  1  0  0  0  0
  6  7  2  0  0  0  0
  7  8  1  0  0  0  0
  8  9  2  0  0  0  0
  4  9  1  0  0  0  0
  6 10  1  0  0  0  0
 10 11  2  0  0  0  0
 11 12  1  0  0  0  0
 12 13  1  0  0  0  0
 13 14  1  0  0  0  0
 14 15  2  0  0  0  0
 14 16  1  0  0  0  0
 16 17  1  0  0  0  0
 17 18  2  0  0  0  0
 18 19  1  0  0  0  0
 19 20  2  0  0  0  0
 20 21  1  0  0  0  0
 21 22  2  0  0  0  0
 17 22  1  0  0  0  0
 20 23  1  0  0  0  0
 23 24  1  0  0  0  0
 24 25  2  0  0  0  0
 24 26  1  0  0  0  0
 26 27  1  0  0  0  0
 27 28  1  0  0  0  0
 28 29  1  0  0  0  0
 23 29  1  0  0  0  0
 29 30  2  0  0  0  0
 12 31  2  0  0  0  0
 31 32  1  0  0  0  0
 32 33  2  0  0  0  0
 10 33  1  0  0  0  0
M  END
> <ID>
CPD_3655

$$$$
CPD_3660
  Mrv1822 09091914012D          

 36 40  0  0  0  0            999 V2000
   -0.9083    2.3234    0.0000 O   0  0  0  0  0  0  0  0  0  0  0  0
   -0.1014    2.1518    0.0000 C   0  0  0  0  0  0  0  0  0  0  0  0
    0.1536    1.3672    0.0000 O   0  0  0  0  0  0  0  0  0  0  0  0
   -0.3984    0.7541    0.0000 C   0  0  0  0  0  0  0  0  0  0  0  0
   -0.1435   -0.0305    0.0000 C   0  0  0  0  0  0  0  0  0  0  0  0
   -0.6284   -0.6979    0.0000 N   0  0  0  0  0  0  0  0  0  0  0  0
   -0.1435   -1.3654    0.0000 O   0  0  0  0  0  0  0  0  0  0  0  0
    0.6411   -1.1104    0.0000 C   0  0  0  0  0  0  0  0  0  0  0  0
    0.6411   -0.2854    0.0000 C   0  0  0  0  0  0  0  0  0  0  0  0
    1.3556    0.1271    0.0000 C   0  0  0  0  0  0  0  0  0  0  0  0
    2.0701   -0.2854    0.0000 C   0  0  0  0  0  0  0  0  0  0  0  0
    2.0701   -1.1104    0.0000 C   0  0  0  0  0  0  0  0  0  0  0  0
    1.3556   -1.5229    0.0000 C   0  0  0  0  0  0  0  0  0  0  0  0
    0.4507    2.7649    0.0000 C   0  0  0  0  0  0  0  0  0  0  0  0
    0.1957    3.5496    0.0000 C   0  0  0  0  0  0  0  0  0  0  0  0
    0.7478    4.1626    0.0000 C   0  0  0  0  0  0  0  0  0  0  0  0
    1.5547    3.9911    0.0000 C   0  0  0  0  0  0  0  0  0  0  0  0
    2.1068    4.6042    0.0000 C   0  0  0  0  0  0  0  0  0  0  0  0
    1.8518    5.3888    0.0000 N   0  0  0  0  0  0  0  0  0  0  0  0
    1.0449    5.5604    0.0000 C   0  0  0  0  0  0  0  0  0  0  0  0
    0.4928    4.9473    0.0000 C   0  0  0  0  0  0  0  0  0  0  0  0
   -0.3141    5.1188    0.0000 C   0  0  0  0  0  0  0  0  0  0  0  0
   -0.5691    5.9034    0.0000 C   0  0  0  0  0  0  0  0  0  0  0  0
   -0.0170    6.5165    0.0000 C   0  0  0  0  0  0  0  0  0  0  0  0
    0.7899    6.3450    0.0000 C   0  0  0  0  0  0  0  0  0  0  0  0
    2.4039    6.0019    0.0000 S   0  0  0  0  0  0  0  0  0  0  0  0
    3.0170    5.4499    0.0000 O   0  0  0  0  0  0  0  0  0  0  0  0
    1.7908    6.5540    0.0000 O   0  0  0  0  0  0  0  0  0  0  0  0
    2.9559    6.6150    0.0000 C   0  0  0  0  0  0  0  0  0  0  0  0
    2.7010    7.3996    0.0000 C   0  0  0  0  0  0  0  0  0  0  0  0
    3.2530    8.0127    0.0000 C   0  0  0  0  0  0  0  0  0  0  0  0
    4.0600    7.8412    0.0000 C   0  0  0  0  0  0  0  0  0  0  0  0
    4.3149    7.0566    0.0000 C   0  0  0  0  0  0  0  0  0  0  0  0
    3.7629    6.4435    0.0000 C   0  0  0  0  0  0  0  0  0  0  0  0
    1.8097    3.2065    0.0000 C   0  0  0  0  0  0  0  0  0  0  0  0
    1.2577    2.5934    0.0000 C   0  0  0  0  0  0  0  0  0  0  0  0
  1  2  2  0  0  0  0
  2  3  1  0  0  0  0
  3  4  1  0  0  0  0
  4  5  1  0  0  0  0
  5  6  2  0  0  0  0
  6  7  1  0  0  0  0
  7  8  1  0  0  0  0
  8  9  2  0  0  0  0
  5  9  1  0  0  0  0
  9 10  1  0  0  0  0
 10 11  1  0  0  0  0
 11 12  1  0  0  0  0
 12 13  1  0  0  0  0
  8 13  1  0  0  0  0
  2 14  1  0  0  0  0
 14 15  2  0  0  0  0
 15 16  1  0  0  0  0
 16 17  2  0  0  0  0
 17 18  1  0  0  0  0
 18 19  1  0  0  0  0
 19 20  1  0  0  0  0
 20 21  2  0  0  0  0
 21 22  1  0  0  0  0
 22 23  2  0  0  0  0
 23 24  1  0  0  0  0
 24 25  2  0  0  0  0
 20 25  1  0  0  0  0
 19 26  1  0  0  0  0
 26 27  2  0  0  0  0
 26 28  2  0  0  0  0
 26 29  1  0  0  0  0
 29 30  2  0  0  0  0
 30 31  1  0  0  0  0
 31 32  2  0  0  0  0
 32 33  1  0  0  0  0
 33 34  2  0  0  0  0
 29 34  1  0  0  0  0
 17 35  1  0  0  0  0
 35 36  2  0  0  0  0
 14 36  1  0  0  0  0
M  END
> <ID>
CPD_3660

$$$$
CPD_3665
  Mrv1822 09091914012D          

 25 27  0  0  0  0            999 V2000
    5.7349   -4.2665    0.0000 C   0  0  0  0  0  0  0  0  0  0  0  0
    4.9381   -4.0530    0.0000 C   0  0  0  0  0  0  0  0  0  0  0  0
    4.3547   -4.6364    0.0000 O   0  0  0  0  0  0  0  0  0  0  0  0
    4.5682   -5.4333    0.0000 C   0  0  0  0  0  0  0  0  0  0  0  0
    5.3651   -5.6468    0.0000 O   0  0  0  0  0  0  0  0  0  0  0  0
    3.9849   -6.0166    0.0000 C   0  0  0  0  0  0  0  0  0  0  0  0
    3.4015   -5.4333    0.0000 C   0  0  0  0  0  0  0  0  0  0  0  0
    2.6046   -5.6468    0.0000 N   0  0  0  0  0  0  0  0  0  0  0  0
    4.5682   -6.6000    0.0000 C   0  0  0  0  0  0  0  0  0  0  0  0
    3.9849   -7.1834    0.0000 C   0  0  0  0  0  0  0  0  0  0  0  0
    3.4015   -6.6000    0.0000 C   0  0  0  0  0  0  0  0  0  0  0  0
    4.7245   -3.2561    0.0000 C   0  0  0  0  0  0  0  0  0  0  0  0
    3.9276   -3.0426    0.0000 C   0  0  0  0  0  0  0  0  0  0  0  0
    3.7141   -2.2457    0.0000 C   0  0  0  0  0  0  0  0  0  0  0  0
    4.2975   -1.6624    0.0000 C   0  0  0  0  0  0  0  0  0  0  0  0
    5.0944   -1.8759    0.0000 C   0  0  0  0  0  0  0  0  0  0  0  0
    5.6777   -1.2925    0.0000 O   0  0  0  0  0  0  0  0  0  0  0  0
    5.4642   -0.4956    0.0000 C   0  0  0  0  0  0  0  0  0  0  0  0
    6.0476    0.0877    0.0000 C   0  0  0  0  0  0  0  0  0  0  0  0
    5.8340    0.8846    0.0000 C   0  0  0  0  0  0  0  0  0  0  0  0
    6.4174    1.4680    0.0000 C   0  0  0  0  0  0  0  0  0  0  0  0
    7.2143    1.2545    0.0000 C   0  0  0  0  0  0  0  0  0  0  0  0
    7.4278    0.4576    0.0000 C   0  0  0  0  0  0  0  0  0  0  0  0
    6.8445   -0.1258    0.0000 C   0  0  0  0  0  0  0  0  0  0  0  0
    5.3079   -2.6728    0.0000 C   0  0  0  0  0  0  0  0  0  0  0  0
  1  2  1  0  0  0  0
  2  3  1  0  0  0  0
  3  4  1  0  0  0  0
  4  5  2  0  0  0  0
  4  6  1  0  0  0  0
  6  7  1  0  0  0  0
  7  8  1  0  0  0  0
  6  9  1  0  0  0  0
  9 10  1  0  0  0  0
 10 11  1  0  0  0  0
  6 11  1  0  0  0  0
  2 12  1  0  0  0  0
 12 13  2  0  0  0  0
 13 14  1  0  0  0  0
 14 15  2  0  0  0  0
 15 16  1  0  0  0  0
 16 17  1  0  0  0  0
 17 18  1  0  0  0  0
 18 19  1  0  0  0  0
 19 20  2  0  0  0  0
 20 21  1  0  0  0  0
 21 22  2  0  0  0  0
 22 23  1  0  0  0  0
 23 24  2  0  0  0  0
 19 24  1  0  0  0  0
 16 25  2  0  0  0  0
 12 25  1  0  0  0  0
M  END
> <ID>
CPD_3665

$$$$
CPD_3670
  Mrv1822 09091914012D          

 19 20  0  0  0  0            999 V2000
    2.0773    8.8065    0.0000 C   0  0  0  0  0  0  0  0  0  0  0  0
    2.2908    8.0096    0.0000 O   0  0  0  0  0  0  0  0  0  0  0  0
    1.7074    7.4262    0.0000 C   0  0  0  0  0  0  0  0  0  0  0  0
    1.9210    6.6293    0.0000 C   0  0  0  0  0  0  0  0  0  0  0  0
    2.7178    6.4158    0.0000 F   0  0  0  0  0  0  0  0  0  0  0  0
    1.3376    6.0460    0.0000 C   0  0  0  0  0  0  0  0  0  0  0  0
    0.5407    6.2595    0.0000 C   0  0  0  0  0  0  0  0  0  0  0  0
   -0.0427    5.6761    0.0000 O   0  0  0  0  0  0  0  0  0  0  0  0
    0.1709    4.8792    0.0000 C   0  0  0  0  0  0  0  0  0  0  0  0
    0.9678    4.6657    0.0000 O   0  0  0  0  0  0  0  0  0  0  0  0
   -0.4125    4.2959    0.0000 C   0  0  0  0  0  0  0  0  0  0  0  0
   -0.9959    4.8792    0.0000 C   0  0  0  0  0  0  0  0  0  0  0  0
   -1.7928    4.6657    0.0000 N   0  0  0  0  0  0  0  0  0  0  0  0
    0.1709    3.7125    0.0000 C   0  0  0  0  0  0  0  0  0  0  0  0
   -0.4125    3.1291    0.0000 C   0  0  0  0  0  0  0  0  0  0  0  0
   -0.9959    3.7125    0.0000 C   0  0  0  0  0  0  0  0  0  0  0  0
    0.3272    7.0564    0.0000 C   0  0  0  0  0  0  0  0  0  0  0  0
    0.9105    7.6397    0.0000 C   0  0  0  0  0  0  0  0  0  0  0  0
    0.6970    8.4366    0.0000 Cl  0  0  0  0  0  0  0  0  0  0  0  0
  1  2  1  0  0  0  0
  2  3  1  0  0  0  0
  3  4  2  0  0  0  0
  4  5  1  0  0  0  0
  4  6  1  0  0  0  0
  6  7  2  0  0  0  0
  7  8  1  0  0  0  0
  8  9  1  0  0  0  0
  9 10  2  0  0  0  0
  9 11  1  0  0  0  0
 11 12  1  0  0  0  0
 12 13  1  0  0  0  0
 11 14  1  0  0  0  0
 14 15  1  0  0  0  0
 15 16  1  0  0  0  0
 11 16  1  0  0  0  0
  7 17  1  0  0  0  0
 17 18  2  0  0  0  0
  3 18  1  0  0  0  0
 18 19  1  0  0  0  0
M  END
> <ID>
CPD_3670

$$$$
CPD_3675
  Mrv1822 09091914012D          

 34 37  0  0  0  0            999 V2000
   -2.1434   -3.7125    0.0000 C   0  0  0  0  0  0  0  0  0  0  0  0
   -2.1434   -2.8875    0.0000 O   0  0  0  0  0  0  0  0  0  0  0  0
   -1.4289   -2.4750    0.0000 C   0  0  0  0  0  0  0  0  0  0  0  0
   -1.4289   -1.6500    0.0000 C   0  0  0  0  0  0  0  0  0  0  0  0
   -0.7145   -1.2375    0.0000 C   0  0  0  0  0  0  0  0  0  0  0  0
    0.0000   -1.6500    0.0000 C   0  0  0  0  0  0  0  0  0  0  0  0
    0.0000   -2.4750    0.0000 C   0  0  0  0  0  0  0  0  0  0  0  0
   -0.7145   -2.8875    0.0000 C   0  0  0  0  0  0  0  0  0  0  0  0
   -0.7145   -3.7125    0.0000 O   0  0  0  0  0  0  0  0  0  0  0  0
   -1.4289   -4.1250    0.0000 C   0  0  0  0  0  0  0  0  0  0  0  0
    0.7145   -1.2375    0.0000 N   0  0  0  0  0  0  0  0  0  0  0  0
    0.7145   -0.4125    0.0000 C   0  0  0  0  0  0  0  0  0  0  0  0
    1.4289    0.0000    0.0000 C   0  0  0  0  0  0  0  0  0  0  0  0
    1.4289    0.8250    0.0000 C   0  0  0  0  0  0  0  0  0  0  0  0
    0.7145    1.2375    0.0000 O   0  0  0  0  0  0  0  0  0  0  0  0
    2.1434    1.2375    0.0000 O   0  0  0  0  0  0  0  0  0  0  0  0
    2.1434    2.0625    0.0000 C   0  0  0  0  0  0  0  0  0  0  0  0
    2.8579    2.4750    0.0000 C   0  0  0  0  0  0  0  0  0  0  0  0
    2.8579    3.3000    0.0000 N   0  0  0  0  0  0  0  0  0  0  0  0
    3.5724    3.7125    0.0000 C   0  0  0  0  0  0  0  0  0  0  0  0
    3.5724    4.5375    0.0000 C   0  0  0  0  0  0  0  0  0  0  0  0
    2.8579    4.9500    0.0000 O   0  0  0  0  0  0  0  0  0  0  0  0
    4.2868    3.3000    0.0000 C   0  0  0  0  0  0  0  0  0  0  0  0
    4.2868    2.4750    0.0000 C   0  0  0  0  0  0  0  0  0  0  0  0
    3.5724    2.0625    0.0000 C   0  0  0  0  0  0  0  0  0  0  0  0
    3.5724    1.2375    0.0000 O   0  0  0  0  0  0  0  0  0  0  0  0
    2.1434   -0.4125    0.0000 C   0  0  0  0  0  0  0  0  0  0  0  0
    2.8579    0.0000    0.0000 C   0  0  0  0  0  0  0  0  0  0  0  0
    3.5724   -0.4125    0.0000 C   0  0  0  0  0  0  0  0  0  0  0  0
    3.5724   -1.2375    0.0000 C   0  0  0  0  0  0  0  0  0  0  0  0
    2.8579   -1.6500    0.0000 C   0  0  0  0  0  0  0  0  0  0  0  0
    2.1434   -1.2375    0.0000 C   0  0  0  0  0  0  0  0  0  0  0  0
    1.4289   -1.6500    0.0000 C   0  0  0  0  0  0  0  0  0  0  0  0
    1.4289   -2.4750    0.0000 O   0  0  0  0  0  0  0  0  0  0  0  0
  1  2  1  0  0  0  0
  2  3  1  0  0  0  0
  3  4  2  0  0  0  0
  4  5  1  0  0  0  0
  5  6  2  0  0  0  0
  6  7  1  0  0  0  0
  7  8  2  0  0  0  0
  3  8  1  0  0  0  0
  8  9  1  0  0  0  0
  9 10  1  0  0  0  0
  6 11  1  0  0  0  0
 11 12  1  0  0  0  0
 12 13  2  0  0  0  0
 13 14  1  0  0  0  0
 14 15  2  0  0  0  0
 14 16  1  0  0  0  0
 16 17  1  0  0  0  0
 17 18  1  0  0  0  0
 18 19  2  0  0  0  0
 19 20  1  0  0  0  0
 20 21  1  0  0  0  0
 21 22  1  0  0  0  0
 20 23  2  0  0  0  0
 23 24  1  0  0  0  0
 24 25  2  0  0  0  0
 18 25  1  0  0  0  0
 25 26  1  0  0  0  0
 13 27  1  0  0  0  0
 27 28  2  0  0  0  0
 28 29  1  0  0  0  0
 29 30  2  0  0  0  0
 30 31  1  0  0  0  0
 31 32  2  0  0  0  0
 27 32  1  0  0  0  0
 32 33  1  0  0  0  0
 11 33  1  0  0  0  0
 33 34  2  0  0  0  0
M  END
> <ID>
CPD_3675

$$$$
CPD_3680
  Mrv1822 09091914012D          

 22 24  0  0  0  0            999 V2000
    0.6283    2.5512    0.0000 C   0  0  0  0  0  0  0  0  0  0  0  0
    0.0980    1.9192    0.0000 C   0  0  0  0  0  0  0  0  0  0  0  0
   -0.7145    2.0625    0.0000 C   0  0  0  0  0  0  0  0  0  0  0  0
   -1.5269    1.9192    0.0000 C   0  0  0  0  0  0  0  0  0  0  0  0
   -2.0572    2.5512    0.0000 C   0  0  0  0  0  0  0  0  0  0  0  0
   -1.7751    3.3265    0.0000 C   0  0  0  0  0  0  0  0  0  0  0  0
   -0.9626    3.4697    0.0000 N   0  0  0  0  0  0  0  0  0  0  0  0
   -0.4323    2.8377    0.0000 C   0  0  0  0  0  0  0  0  0  0  0  0
   -0.7145    1.2375    0.0000 C   0  0  0  0  0  0  0  0  0  0  0  0
   -1.4289    0.8250    0.0000 O   0  0  0  0  0  0  0  0  0  0  0  0
    0.0000    0.8250    0.0000 O   0  0  0  0  0  0  0  0  0  0  0  0
    0.0000   -0.0000    0.0000 C   0  0  0  0  0  0  0  0  0  0  0  0
   -0.7145   -0.4125    0.0000 N   0  0  0  0  0  0  0  0  0  0  0  0
   -0.7145   -1.2375    0.0000 C   0  0  0  0  0  0  0  0  0  0  0  0
    0.0000   -1.6500    0.0000 N   0  0  0  0  0  0  0  0  0  0  0  0
    0.7145   -1.2375    0.0000 C   0  0  0  0  0  0  0  0  0  0  0  0
    0.7145   -0.4125    0.0000 C   0  0  0  0  0  0  0  0  0  0  0  0
    1.4289   -0.0000    0.0000 C   0  0  0  0  0  0  0  0  0  0  0  0
    2.1434   -0.4125    0.0000 C   0  0  0  0  0  0  0  0  0  0  0  0
    2.8579   -0.0000    0.0000 Cl  0  0  0  0  0  0  0  0  0  0  0  0
    2.1434   -1.2375    0.0000 C   0  0  0  0  0  0  0  0  0  0  0  0
    1.4289   -1.6500    0.0000 C   0  0  0  0  0  0  0  0  0  0  0  0
  1  2  1  0  0  0  0
  2  3  1  0  0  0  0
  3  4  1  0  0  0  0
  4  5  1  0  0  0  0
  5  6  1  0  0  0  0
  6  7  1  0  0  0  0
  7  8  1  0  0  0  0
  3  8  1  0  0  0  0
  3  9  1  0  0  0  0
  9 10  2  0  0  0  0
  9 11  1  0  0  0  0
 11 12  1  0  0  0  0
 12 13  2  0  0  0  0
 13 14  1  0  0  0  0
 14 15  2  0  0  0  0
 15 16  1  0  0  0  0
 16 17  2  0  0  0  0
 12 17  1  0  0  0  0
 17 18  1  0  0  0  0
 18 19  2  0  0  0  0
 19 20  1  0  0  0  0
 19 21  1  0  0  0  0
 21 22  2  0  0  0  0
 16 22  1  0  0  0  0
M  END
> <ID>
CPD_3680

$$$$
CPD_3685
  Mrv1822 09091914012D          

 23 25  0  0  0  0            999 V2000
   -1.1808    1.4072    0.0000 C   0  0  0  0  0  0  0  0  0  0  0  0
   -0.8986    0.6320    0.0000 C   0  0  0  0  0  0  0  0  0  0  0  0
   -1.4289    0.0000    0.0000 C   0  0  0  0  0  0  0  0  0  0  0  0
   -1.7111   -0.7752    0.0000 C   0  0  0  0  0  0  0  0  0  0  0  0
   -2.5236   -0.9185    0.0000 C   0  0  0  0  0  0  0  0  0  0  0  0
   -3.0539   -0.2865    0.0000 C   0  0  0  0  0  0  0  0  0  0  0  0
   -2.7717    0.4887    0.0000 N   0  0  0  0  0  0  0  0  0  0  0  0
   -1.9592    0.6320    0.0000 C   0  0  0  0  0  0  0  0  0  0  0  0
   -0.7145   -0.4125    0.0000 C   0  0  0  0  0  0  0  0  0  0  0  0
   -0.7145   -1.2375    0.0000 O   0  0  0  0  0  0  0  0  0  0  0  0
    0.0000    0.0000    0.0000 O   0  0  0  0  0  0  0  0  0  0  0  0
    0.7145   -0.4125    0.0000 C   0  0  0  0  0  0  0  0  0  0  0  0
    1.4289    0.0000    0.0000 N   0  0  0  0  0  0  0  0  0  0  0  0
    2.1434   -0.4125    0.0000 C   0  0  0  0  0  0  0  0  0  0  0  0
    2.8579    0.0000    0.0000 C   0  0  0  0  0  0  0  0  0  0  0  0
    3.5724   -0.4125    0.0000 C   0  0  0  0  0  0  0  0  0  0  0  0
    3.5724   -1.2375    0.0000 C   0  0  0  0  0  0  0  0  0  0  0  0
    4.2868   -1.6500    0.0000 Br  0  0  0  0  0  0  0  0  0  0  0  0
    2.8579   -1.6500    0.0000 C   0  0  0  0  0  0  0  0  0  0  0  0
    2.1434   -1.2375    0.0000 C   0  0  0  0  0  0  0  0  0  0  0  0
    1.4289   -1.6500    0.0000 C   0  0  0  0  0  0  0  0  0  0  0  0
    1.4289   -2.4750    0.0000 O   0  0  0  0  0  0  0  0  0  0  0  0
    0.7145   -1.2375    0.0000 C   0  0  0  0  0  0  0  0  0  0  0  0
  1  2  1  0  0  0  0
  2  3  1  0  0  0  0
  3  4  1  0  0  0  0
  4  5  1  0  0  0  0
  5  6  1  0  0  0  0
  6  7  1  0  0  0  0
  7  8  1  0  0  0  0
  3  8  1  0  0  0  0
  3  9  1  0  0  0  0
  9 10  2  0  0  0  0
  9 11  1  0  0  0  0
 11 12  1  0  0  0  0
 12 13  2  0  0  0  0
 13 14  1  0  0  0  0
 14 15  2  0  0  0  0
 15 16  1  0  0  0  0
 16 17  2  0  0  0  0
 17 18  1  0  0  0  0
 17 19  1  0  0  0  0
 19 20  2  0  0  0  0
 14 20  1  0  0  0  0
 20 21  1  0  0  0  0
 21 22  1  0  0  0  0
 21 23  2  0  0  0  0
 12 23  1  0  0  0  0
M  END
> <ID>
CPD_3685

$$$$
CPD_3690
  Mrv1822 09091914012D          

 33 35  0  0  0  0            999 V2000
    0.3837    4.9949    0.0000 C   0  0  0  0  0  0  0  0  0  0  0  0
    0.5552    4.1879    0.0000 C   0  0  0  0  0  0  0  0  0  0  0  0
    1.3398    3.9330    0.0000 C   0  0  0  0  0  0  0  0  0  0  0  0
    1.9529    4.4850    0.0000 Cl  0  0  0  0  0  0  0  0  0  0  0  0
    1.5114    3.1260    0.0000 C   0  0  0  0  0  0  0  0  0  0  0  0
    0.8983    2.5740    0.0000 C   0  0  0  0  0  0  0  0  0  0  0  0
    0.1137    2.8289    0.0000 C   0  0  0  0  0  0  0  0  0  0  0  0
   -0.0579    3.6359    0.0000 C   0  0  0  0  0  0  0  0  0  0  0  0
    1.0698    1.7670    0.0000 S   0  0  0  0  0  0  0  0  0  0  0  0
    0.2628    1.5955    0.0000 O   0  0  0  0  0  0  0  0  0  0  0  0
    1.8768    1.9385    0.0000 O   0  0  0  0  0  0  0  0  0  0  0  0
    1.2413    0.9600    0.0000 N   0  0  0  0  0  0  0  0  0  0  0  0
    0.6282    0.4080    0.0000 C   0  0  0  0  0  0  0  0  0  0  0  0
    0.7145   -0.4125    0.0000 C   0  0  0  0  0  0  0  0  0  0  0  0
   -0.0392   -0.7481    0.0000 S   0  0  0  0  0  0  0  0  0  0  0  0
   -0.5912   -0.1350    0.0000 C   0  0  0  0  0  0  0  0  0  0  0  0
   -0.1787    0.5795    0.0000 C   0  0  0  0  0  0  0  0  0  0  0  0
    1.4289   -0.8250    0.0000 C   0  0  0  0  0  0  0  0  0  0  0  0
    2.1434   -0.4125    0.0000 O   0  0  0  0  0  0  0  0  0  0  0  0
    1.4289   -1.6500    0.0000 O   0  0  0  0  0  0  0  0  0  0  0  0
    2.1434   -2.0625    0.0000 C   0  0  0  0  0  0  0  0  0  0  0  0
    2.8579   -1.6500    0.0000 C   0  0  0  0  0  0  0  0  0  0  0  0
    3.5724   -2.0625    0.0000 C   0  0  0  0  0  0  0  0  0  0  0  0
    4.2868   -1.6500    0.0000 C   0  0  0  0  0  0  0  0  0  0  0  0
    4.2868   -0.8250    0.0000 O   0  0  0  0  0  0  0  0  0  0  0  0
    5.0013   -2.0625    0.0000 O   0  0  0  0  0  0  0  0  0  0  0  0
    2.1434   -2.8875    0.0000 C   0  0  0  0  0  0  0  0  0  0  0  0
    2.8579   -3.3000    0.0000 C   0  0  0  0  0  0  0  0  0  0  0  0
    2.8579   -4.1250    0.0000 C   0  0  0  0  0  0  0  0  0  0  0  0
    2.1434   -4.5375    0.0000 C   0  0  0  0  0  0  0  0  0  0  0  0
    2.1434   -5.3625    0.0000 F   0  0  0  0  0  0  0  0  0  0  0  0
    1.4289   -4.1250    0.0000 C   0  0  0  0  0  0  0  0  0  0  0  0
    1.4289   -3.3000    0.0000 C   0  0  0  0  0  0  0  0  0  0  0  0
  1  2  1  0  0  0  0
  2  3  2  0  0  0  0
  3  4  1  0  0  0  0
  3  5  1  0  0  0  0
  5  6  2  0  0  0  0
  6  7  1  0  0  0  0
  7  8  2  0  0  0  0
  2  8  1  0  0  0  0
  6  9  1  0  0  0  0
  9 10  2  0  0  0  0
  9 11  2  0  0  0  0
  9 12  1  0  0  0  0
 12 13  1  0  0  0  0
 13 14  2  0  0  0  0
 14 15  1  0  0  0  0
 15 16  1  0  0  0  0
 16 17  2  0  0  0  0
 13 17  1  0  0  0  0
 14 18  1  0  0  0  0
 18 19  2  0  0  0  0
 18 20  1  0  0  0  0
 20 21  1  0  0  0  0
 21 22  1  0  0  0  0
 22 23  1  0  0  0  0
 23 24  1  0  0  0  0
 24 25  1  0  0  0  0
 24 26  2  0  0  0  0
 21 27  1  0  0  0  0
 27 28  2  0  0  0  0
 28 29  1  0  0  0  0
 29 30  2  0  0  0  0
 30 31  1  0  0  0  0
 30 32  1  0  0  0  0
 32 33  2  0  0  0  0
 27 33  1  0  0  0  0
M  END
> <ID>
CPD_3690

$$$$
CPD_3695
  Mrv1822 09091914012D          

 27 28  0  0  0  0            999 V2000
    0.6338   -5.8074    0.0000 C   0  0  0  0  0  0  0  0  0  0  0  0
    0.3788   -5.0228    0.0000 C   0  0  0  0  0  0  0  0  0  0  0  0
    1.1635   -4.7679    0.0000 C   0  0  0  0  0  0  0  0  0  0  0  0
   -0.4058   -5.2777    0.0000 C   0  0  0  0  0  0  0  0  0  0  0  0
    0.1239   -4.2382    0.0000 O   0  0  0  0  0  0  0  0  0  0  0  0
    0.6759   -3.6251    0.0000 C   0  0  0  0  0  0  0  0  0  0  0  0
    1.4829   -3.7966    0.0000 O   0  0  0  0  0  0  0  0  0  0  0  0
    0.4210   -2.8405    0.0000 N   0  0  0  0  0  0  0  0  0  0  0  0
   -0.3636   -2.5855    0.0000 C   0  0  0  0  0  0  0  0  0  0  0  0
   -0.3636   -1.7605    0.0000 C   0  0  0  0  0  0  0  0  0  0  0  0
    0.4210   -1.5056    0.0000 C   0  0  0  0  0  0  0  0  0  0  0  0
    0.9059   -2.1730    0.0000 C   0  0  0  0  0  0  0  0  0  0  0  0
    1.7309   -2.1730    0.0000 C   0  0  0  0  0  0  0  0  0  0  0  0
    2.1434   -2.8875    0.0000 C   0  0  0  0  0  0  0  0  0  0  0  0
    2.9684   -2.8875    0.0000 C   0  0  0  0  0  0  0  0  0  0  0  0
    3.3809   -2.1730    0.0000 O   0  0  0  0  0  0  0  0  0  0  0  0
    3.3809   -3.6020    0.0000 O   0  0  0  0  0  0  0  0  0  0  0  0
    4.2059   -3.6020    0.0000 C   0  0  0  0  0  0  0  0  0  0  0  0
    4.6184   -2.8875    0.0000 C   0  0  0  0  0  0  0  0  0  0  0  0
    5.4434   -2.8875    0.0000 O   0  0  0  0  0  0  0  0  0  0  0  0
    4.6184   -4.3164    0.0000 C   0  0  0  0  0  0  0  0  0  0  0  0
    5.4434   -4.3164    0.0000 C   0  0  0  0  0  0  0  0  0  0  0  0
    5.8559   -5.0309    0.0000 C   0  0  0  0  0  0  0  0  0  0  0  0
    5.4434   -5.7454    0.0000 C   0  0  0  0  0  0  0  0  0  0  0  0
    5.8559   -6.4599    0.0000 Br  0  0  0  0  0  0  0  0  0  0  0  0
    4.6184   -5.7454    0.0000 C   0  0  0  0  0  0  0  0  0  0  0  0
    4.2059   -5.0309    0.0000 C   0  0  0  0  0  0  0  0  0  0  0  0
  1  2  1  0  0  0  0
  2  3  1  0  0  0  0
  2  4  1  0  0  0  0
  2  5  1  0  0  0  0
  5  6  1  0  0  0  0
  6  7  2  0  0  0  0
  6  8  1  0  0  0  0
  8  9  1  0  0  0  0
  9 10  1  0  0  0  0
 10 11  1  0  0  0  0
 11 12  1  0  0  0  0
  8 12  1  0  0  0  0
 12 13  1  0  0  0  0
 13 14  1  0  0  0  0
 14 15  1  0  0  0  0
 15 16  2  0  0  0  0
 15 17  1  0  0  0  0
 17 18  1  0  0  0  0
 18 19  1  0  0  0  0
 19 20  1  0  0  0  0
 18 21  1  0  0  0  0
 21 22  2  0  0  0  0
 22 23  1  0  0  0  0
 23 24  2  0  0  0  0
 24 25  1  0  0  0  0
 24 26  1  0  0  0  0
 26 27  2  0  0  0  0
 21 27  1  0  0  0  0
M  END
> <ID>
CPD_3695

$$$$
CPD_3700
  Mrv1822 09091914012D          

 29 30  0  0  0  0            999 V2000
   -2.1434    3.7125    0.0000 C   0  0  0  0  0  0  0  0  0  0  0  0
   -2.1434    2.8875    0.0000 C   0  0  0  0  0  0  0  0  0  0  0  0
   -1.4289    2.4750    0.0000 C   0  0  0  0  0  0  0  0  0  0  0  0
   -1.4289    1.6500    0.0000 C   0  0  0  0  0  0  0  0  0  0  0  0
   -0.7145    1.2375    0.0000 C   0  0  0  0  0  0  0  0  0  0  0  0
   -0.0000    1.6500    0.0000 O   0  0  0  0  0  0  0  0  0  0  0  0
    0.7145    1.2375    0.0000 C   0  0  0  0  0  0  0  0  0  0  0  0
    0.7145    0.4125    0.0000 O   0  0  0  0  0  0  0  0  0  0  0  0
    1.4289    1.6500    0.0000 C   0  0  0  0  0  0  0  0  0  0  0  0
    2.1434    1.2375    0.0000 C   0  0  0  0  0  0  0  0  0  0  0  0
    2.8579    1.6500    0.0000 C   0  0  0  0  0  0  0  0  0  0  0  0
    2.9441    2.4705    0.0000 C   0  0  0  0  0  0  0  0  0  0  0  0
    3.7511    2.6420    0.0000 C   0  0  0  0  0  0  0  0  0  0  0  0
    4.1636    1.9275    0.0000 C   0  0  0  0  0  0  0  0  0  0  0  0
    3.6116    1.3144    0.0000 N   0  0  0  0  0  0  0  0  0  0  0  0
    3.7831    0.5075    0.0000 C   0  0  0  0  0  0  0  0  0  0  0  0
    3.1700   -0.0446    0.0000 O   0  0  0  0  0  0  0  0  0  0  0  0
    4.5677    0.2525    0.0000 O   0  0  0  0  0  0  0  0  0  0  0  0
    5.1808    0.8046    0.0000 C   0  0  0  0  0  0  0  0  0  0  0  0
    5.7939    1.3566    0.0000 C   0  0  0  0  0  0  0  0  0  0  0  0
    5.7328    0.1915    0.0000 C   0  0  0  0  0  0  0  0  0  0  0  0
    4.6288    1.4177    0.0000 C   0  0  0  0  0  0  0  0  0  0  0  0
   -2.1434    1.2375    0.0000 C   0  0  0  0  0  0  0  0  0  0  0  0
   -2.8579    1.6500    0.0000 C   0  0  0  0  0  0  0  0  0  0  0  0
   -2.8579    2.4750    0.0000 C   0  0  0  0  0  0  0  0  0  0  0  0
   -2.1434    0.4125    0.0000 C   0  0  0  0  0  0  0  0  0  0  0  0
   -2.1434   -0.4125    0.0000 F   0  0  0  0  0  0  0  0  0  0  0  0
   -2.9684    0.4125    0.0000 F   0  0  0  0  0  0  0  0  0  0  0  0
   -1.3184    0.4125    0.0000 F   0  0  0  0  0  0  0  0  0  0  0  0
  1  2  1  0  0  0  0
  2  3  2  0  0  0  0
  3  4  1  0  0  0  0
  4  5  1  0  0  0  0
  5  6  1  0  0  0  0
  6  7  1  0  0  0  0
  7  8  2  0  0  0  0
  7  9  1  0  0  0  0
  9 10  1  0  0  0  0
 10 11  1  0  0  0  0
 11 12  1  0  0  0  0
 12 13  1  0  0  0  0
 13 14  1  0  0  0  0
 14 15  1  0  0  0  0
 11 15  1  0  0  0  0
 15 16  1  0  0  0  0
 16 17  2  0  0  0  0
 16 18  1  0  0  0  0
 18 19  1  0  0  0  0
 19 20  1  0  0  0  0
 19 21  1  0  0  0  0
 19 22  1  0  0  0  0
  4 23  2  0  0  0  0
 23 24  1  0  0  0  0
 24 25  2  0  0  0  0
  2 25  1  0  0  0  0
 23 26  1  0  0  0  0
 26 27  1  0  0  0  0
 26 28  1  0  0  0  0
 26 29  1  0  0  0  0
M  END
> <ID>
CPD_3700

$$$$
CPD_3705
  Mrv1822 09091914012D          

 31 34  0  0  0  0            999 V2000
   -5.2972    4.7084    0.0000 C   0  0  0  0  0  0  0  0  0  0  0  0
   -4.5828    4.2959    0.0000 C   0  0  0  0  0  0  0  0  0  0  0  0
   -4.9953    3.5814    0.0000 C   0  0  0  0  0  0  0  0  0  0  0  0
   -4.1703    5.0103    0.0000 C   0  0  0  0  0  0  0  0  0  0  0  0
   -3.8683    3.8834    0.0000 O   0  0  0  0  0  0  0  0  0  0  0  0
   -3.1538    4.2959    0.0000 C   0  0  0  0  0  0  0  0  0  0  0  0
   -3.1538    5.1209    0.0000 O   0  0  0  0  0  0  0  0  0  0  0  0
   -2.4394    3.8834    0.0000 N   0  0  0  0  0  0  0  0  0  0  0  0
   -1.7249    4.2959    0.0000 C   0  0  0  0  0  0  0  0  0  0  0  0
   -1.0104    3.8834    0.0000 C   0  0  0  0  0  0  0  0  0  0  0  0
   -1.0104    3.0584    0.0000 C   0  0  0  0  0  0  0  0  0  0  0  0
   -0.2135    3.2719    0.0000 C   0  0  0  0  0  0  0  0  0  0  0  0
    0.0000    2.4750    0.0000 C   0  0  0  0  0  0  0  0  0  0  0  0
    0.7145    2.0625    0.0000 C   0  0  0  0  0  0  0  0  0  0  0  0
    0.7145    1.2375    0.0000 O   0  0  0  0  0  0  0  0  0  0  0  0
    1.4289    0.8250    0.0000 C   0  0  0  0  0  0  0  0  0  0  0  0
    2.1434    1.2375    0.0000 O   0  0  0  0  0  0  0  0  0  0  0  0
    1.4289    0.0000    0.0000 C   0  0  0  0  0  0  0  0  0  0  0  0
    2.1434   -0.4125    0.0000 C   0  0  0  0  0  0  0  0  0  0  0  0
    2.8579    0.0000    0.0000 O   0  0  0  0  0  0  0  0  0  0  0  0
    3.5724   -0.4125    0.0000 C   0  0  0  0  0  0  0  0  0  0  0  0
    3.5724   -1.2375    0.0000 C   0  0  0  0  0  0  0  0  0  0  0  0
    2.8579   -1.6500    0.0000 O   0  0  0  0  0  0  0  0  0  0  0  0
    2.1434   -1.2375    0.0000 C   0  0  0  0  0  0  0  0  0  0  0  0
    1.4289   -1.6500    0.0000 N   0  0  0  0  0  0  0  0  0  0  0  0
    0.7145   -1.2375    0.0000 C   0  0  0  0  0  0  0  0  0  0  0  0
    0.7145   -0.4125    0.0000 C   0  0  0  0  0  0  0  0  0  0  0  0
    0.0000   -0.0000    0.0000 Cl  0  0  0  0  0  0  0  0  0  0  0  0
   -0.7969    2.2615    0.0000 O   0  0  0  0  0  0  0  0  0  0  0  0
   -1.7249    2.6459    0.0000 C   0  0  0  0  0  0  0  0  0  0  0  0
   -2.4394    3.0584    0.0000 C   0  0  0  0  0  0  0  0  0  0  0  0
  1  2  1  0  0  0  0
  2  3  1  0  0  0  0
  2  4  1  0  0  0  0
  2  5  1  0  0  0  0
  5  6  1  0  0  0  0
  6  7  2  0  0  0  0
  6  8  1  0  0  0  0
  8  9  1  0  0  0  0
  9 10  1  0  0  0  0
 10 11  1  0  0  0  0
 11 12  1  0  0  0  0
 12 13  1  0  0  0  0
 13 14  1  0  0  0  0
 14 15  1  0  0  0  0
 15 16  1  0  0  0  0
 16 17  2  0  0  0  0
 16 18  1  0  0  0  0
 18 19  2  0  0  0  0
 19 20  1  0  0  0  0
 20 21  1  0  0  0  0
 21 22  1  0  0  0  0
 22 23  1  0  0  0  0
 23 24  1  0  0  0  0
 19 24  1  0  0  0  0
 24 25  2  0  0  0  0
 25 26  1  0  0  0  0
 26 27  2  0  0  0  0
 18 27  1  0  0  0  0
 27 28  1  0  0  0  0
 13 29  1  0  0  0  0
 11 29  1  0  0  0  0
 11 30  1  0  0  0  0
 30 31  1  0  0  0  0
  8 31  1  0  0  0  0
M  END
> <ID>
CPD_3705

$$$$
CPD_3710
  Mrv1822 09091914012D          

 25 27  0  0  0  0            999 V2000
    0.7145    4.5375    0.0000 C   0  0  0  0  0  0  0  0  0  0  0  0
    0.7145    3.7125    0.0000 O   0  0  0  0  0  0  0  0  0  0  0  0
    0.0000    3.3000    0.0000 C   0  0  0  0  0  0  0  0  0  0  0  0
    0.0000    2.4750    0.0000 C   0  0  0  0  0  0  0  0  0  0  0  0
    0.7145    2.0625    0.0000 C   0  0  0  0  0  0  0  0  0  0  0  0
    0.7145    1.2375    0.0000 O   0  0  0  0  0  0  0  0  0  0  0  0
    1.4289    0.8250    0.0000 C   0  0  0  0  0  0  0  0  0  0  0  0
    2.1434    1.2375    0.0000 O   0  0  0  0  0  0  0  0  0  0  0  0
    1.4289    0.0000    0.0000 C   0  0  0  0  0  0  0  0  0  0  0  0
    2.1434   -0.4125    0.0000 C   0  0  0  0  0  0  0  0  0  0  0  0
    2.8579    0.0000    0.0000 O   0  0  0  0  0  0  0  0  0  0  0  0
    3.5724   -0.4125    0.0000 C   0  0  0  0  0  0  0  0  0  0  0  0
    3.5724   -1.2375    0.0000 C   0  0  0  0  0  0  0  0  0  0  0  0
    2.8579   -1.6500    0.0000 O   0  0  0  0  0  0  0  0  0  0  0  0
    2.1434   -1.2375    0.0000 C   0  0  0  0  0  0  0  0  0  0  0  0
    1.4289   -1.6500    0.0000 N   0  0  0  0  0  0  0  0  0  0  0  0
    0.7145   -1.2375    0.0000 C   0  0  0  0  0  0  0  0  0  0  0  0
    0.7145   -0.4125    0.0000 C   0  0  0  0  0  0  0  0  0  0  0  0
    0.0000   -0.0000    0.0000 Cl  0  0  0  0  0  0  0  0  0  0  0  0
   -0.7145    2.0625    0.0000 C   0  0  0  0  0  0  0  0  0  0  0  0
   -1.4289    2.4750    0.0000 C   0  0  0  0  0  0  0  0  0  0  0  0
   -2.1434    2.0625    0.0000 F   0  0  0  0  0  0  0  0  0  0  0  0
   -1.4289    3.3000    0.0000 C   0  0  0  0  0  0  0  0  0  0  0  0
   -2.1434    3.7125    0.0000 F   0  0  0  0  0  0  0  0  0  0  0  0
   -0.7145    3.7125    0.0000 C   0  0  0  0  0  0  0  0  0  0  0  0
  1  2  1  0  0  0  0
  2  3  1  0  0  0  0
  3  4  2  0  0  0  0
  4  5  1  0  0  0  0
  5  6  1  0  0  0  0
  6  7  1  0  0  0  0
  7  8  2  0  0  0  0
  7  9  1  0  0  0  0
  9 10  2  0  0  0  0
 10 11  1  0  0  0  0
 11 12  1  0  0  0  0
 12 13  1  0  0  0  0
 13 14  1  0  0  0  0
 14 15  1  0  0  0  0
 10 15  1  0  0  0  0
 15 16  2  0  0  0  0
 16 17  1  0  0  0  0
 17 18  2  0  0  0  0
  9 18  1  0  0  0  0
 18 19  1  0  0  0  0
  4 20  1  0  0  0  0
 20 21  2  0  0  0  0
 21 22  1  0  0  0  0
 21 23  1  0  0  0  0
 23 24  1  0  0  0  0
 23 25  2  0  0  0  0
  3 25  1  0  0  0  0
M  END
> <ID>
CPD_3710

$$$$
CPD_3715
  Mrv1822 09091914012D          

 29 32  0  0  0  0            999 V2000
    0.7145    3.7125    0.0000 O   0  0  0  0  0  0  0  0  0  0  0  0
    1.4289    3.3000    0.0000 C   0  0  0  0  0  0  0  0  0  0  0  0
    2.1434    3.7125    0.0000 C   0  0  0  0  0  0  0  0  0  0  0  0
    2.8579    3.3000    0.0000 C   0  0  0  0  0  0  0  0  0  0  0  0
    2.8579    2.4750    0.0000 C   0  0  0  0  0  0  0  0  0  0  0  0
    2.1434    2.0625    0.0000 C   0  0  0  0  0  0  0  0  0  0  0  0
    2.1434    1.2375    0.0000 O   0  0  0  0  0  0  0  0  0  0  0  0
    1.4289    0.8250    0.0000 C   0  0  0  0  0  0  0  0  0  0  0  0
    0.7145    1.2375    0.0000 O   0  0  0  0  0  0  0  0  0  0  0  0
    1.4289    0.0000    0.0000 C   0  0  0  0  0  0  0  0  0  0  0  0
    2.1434   -0.4125    0.0000 C   0  0  0  0  0  0  0  0  0  0  0  0
    2.8579    0.0000    0.0000 O   0  0  0  0  0  0  0  0  0  0  0  0
    3.5724   -0.4125    0.0000 C   0  0  0  0  0  0  0  0  0  0  0  0
    3.5724   -1.2375    0.0000 C   0  0  0  0  0  0  0  0  0  0  0  0
    2.8579   -1.6500    0.0000 O   0  0  0  0  0  0  0  0  0  0  0  0
    2.1434   -1.2375    0.0000 C   0  0  0  0  0  0  0  0  0  0  0  0
    1.4289   -1.6500    0.0000 N   0  0  0  0  0  0  0  0  0  0  0  0
    0.7145   -1.2375    0.0000 C   0  0  0  0  0  0  0  0  0  0  0  0
    0.7145   -0.4125    0.0000 C   0  0  0  0  0  0  0  0  0  0  0  0
    0.0000   -0.0000    0.0000 Cl  0  0  0  0  0  0  0  0  0  0  0  0
    1.4289    2.4750    0.0000 C   0  0  0  0  0  0  0  0  0  0  0  0
    2.1434    4.5375    0.0000 C   0  0  0  0  0  0  0  0  0  0  0  0
    1.4289    4.9500    0.0000 O   0  0  0  0  0  0  0  0  0  0  0  0
    2.8579    4.9500    0.0000 C   0  0  0  0  0  0  0  0  0  0  0  0
    2.8579    5.7750    0.0000 C   0  0  0  0  0  0  0  0  0  0  0  0
    3.5724    6.1875    0.0000 C   0  0  0  0  0  0  0  0  0  0  0  0
    4.2868    5.7750    0.0000 C   0  0  0  0  0  0  0  0  0  0  0  0
    4.2868    4.9500    0.0000 C   0  0  0  0  0  0  0  0  0  0  0  0
    3.5724    4.5375    0.0000 C   0  0  0  0  0  0  0  0  0  0  0  0
  1  2  1  0  0  0  0
  2  3  2  0  0  0  0
  3  4  1  0  0  0  0
  4  5  2  0  0  0  0
  5  6  1  0  0  0  0
  6  7  1  0  0  0  0
  7  8  1  0  0  0  0
  8  9  2  0  0  0  0
  8 10  1  0  0  0  0
 10 11  2  0  0  0  0
 11 12  1  0  0  0  0
 12 13  1  0  0  0  0
 13 14  1  0  0  0  0
 14 15  1  0  0  0  0
 15 16  1  0  0  0  0
 11 16  1  0  0  0  0
 16 17  2  0  0  0  0
 17 18  1  0  0  0  0
 18 19  2  0  0  0  0
 10 19  1  0  0  0  0
 19 20  1  0  0  0  0
  6 21  2  0  0  0  0
  2 21  1  0  0  0  0
  3 22  1  0  0  0  0
 22 23  2  0  0  0  0
 22 24  1  0  0  0  0
 24 25  2  0  0  0  0
 25 26  1  0  0  0  0
 26 27  2  0  0  0  0
 27 28  1  0  0  0  0
 28 29  2  0  0  0  0
 24 29  1  0  0  0  0
M  END
> <ID>
CPD_3715

$$$$
CPD_3720
  Mrv1822 09091914012D          

 28 29  0  0  1  0            999 V2000
    1.5363   -1.2553    0.0000 C   0  0  0  0  0  0  0  0  0  0  0  0
    2.3464   -1.4112    0.0000 C   0  0  0  0  0  0  0  0  0  0  0  0
    2.1905   -2.2213    0.0000 C   0  0  0  0  0  0  0  0  0  0  0  0
    2.5023   -0.6011    0.0000 C   0  0  0  0  0  0  0  0  0  0  0  0
    3.1565   -1.5671    0.0000 O   0  0  0  0  0  0  0  0  0  0  0  0
    3.6966   -0.9435    0.0000 C   0  0  0  0  0  0  0  0  0  0  0  0
    3.4266   -0.1639    0.0000 O   0  0  0  0  0  0  0  0  0  0  0  0
    4.5068   -1.0994    0.0000 N   0  0  0  0  0  0  0  0  0  0  0  0
    5.0468   -0.4758    0.0000 C   0  0  2  0  0  0  0  0  0  0  0  0
    4.7768    0.3038    0.0000 C   0  0  0  0  0  0  0  0  0  0  0  0
    5.3169    0.9274    0.0000 O   0  0  0  0  0  0  0  0  0  0  0  0
    5.8570   -0.6317    0.0000 C   0  0  0  0  0  0  0  0  0  0  0  0
    6.3971   -0.0080    0.0000 C   0  0  0  0  0  0  0  0  0  0  0  0
    7.2072   -0.1639    0.0000 C   0  0  0  0  0  0  0  0  0  0  0  0
    7.7473    0.4597    0.0000 O   0  0  0  0  0  0  0  0  0  0  0  0
    8.5574    0.3038    0.0000 C   0  0  0  0  0  0  0  0  0  0  0  0
    9.0975    0.9274    0.0000 O   0  0  0  0  0  0  0  0  0  0  0  0
    8.8275   -0.4758    0.0000 C   0  0  0  0  0  0  0  0  0  0  0  0
    9.3479   -1.1159    0.0000 C   0  0  0  0  0  0  0  0  0  0  0  0
    9.0536   -1.8867    0.0000 C   0  0  0  0  0  0  0  0  0  0  0  0
    8.2390   -2.0173    0.0000 C   0  0  0  0  0  0  0  0  0  0  0  0
    7.7187   -1.3771    0.0000 C   0  0  0  0  0  0  0  0  0  0  0  0
    8.0129   -0.6063    0.0000 C   0  0  0  0  0  0  0  0  0  0  0  0
    9.5483   -0.0744    0.0000 N   0  0  0  0  0  0  0  0  0  0  0  0
    9.6473    0.7446    0.0000 C   0  0  0  0  0  0  0  0  0  0  0  0
   10.4569    0.9035    0.0000 C   0  0  0  0  0  0  0  0  0  0  0  0
   10.8582    0.1827    0.0000 C   0  0  0  0  0  0  0  0  0  0  0  0
   10.2966   -0.4217    0.0000 C   0  0  0  0  0  0  0  0  0  0  0  0
  1  2  1  0  0  0  0
  2  3  1  0  0  0  0
  2  4  1  0  0  0  0
  2  5  1  0  0  0  0
  5  6  1  0  0  0  0
  6  7  2  0  0  0  0
  6  8  1  0  0  0  0
  9  8  1  6  0  0  0
  9 10  1  0  0  0  0
 10 11  1  0  0  0  0
  9 12  1  0  0  0  0
 12 13  1  0  0  0  0
 13 14  1  0  0  0  0
 14 15  1  0  0  0  0
 15 16  1  0  0  0  0
 16 17  2  0  0  0  0
 16 18  1  0  0  0  0
 18 19  1  0  0  0  0
 19 20  1  0  0  0  0
 20 21  1  0  0  0  0
 21 22  1  0  0  0  0
 22 23  1  0  0  0  0
 18 23  1  0  0  0  0
 18 24  1  0  0  0  0
 24 25  1  0  0  0  0
 25 26  2  0  0  0  0
 26 27  1  0  0  0  0
 27 28  2  0  0  0  0
 24 28  1  0  0  0  0
M  END
> <ID>
CPD_3720

$$$$
CPD_3725
  Mrv1822 09091914012D          

 22 24  0  0  0  0            999 V2000
    1.8883    0.2902    0.0000 Br  0  0  0  0  0  0  0  0  0  0  0  0
    2.1705   -0.4851    0.0000 C   0  0  0  0  0  0  0  0  0  0  0  0
    2.9829   -0.6283    0.0000 C   0  0  0  0  0  0  0  0  0  0  0  0
    3.2651   -1.4036    0.0000 C   0  0  0  0  0  0  0  0  0  0  0  0
    2.7348   -2.0356    0.0000 C   0  0  0  0  0  0  0  0  0  0  0  0
    1.9223   -1.8923    0.0000 C   0  0  0  0  0  0  0  0  0  0  0  0
    1.3920   -2.5243    0.0000 Br  0  0  0  0  0  0  0  0  0  0  0  0
    1.6402   -1.1171    0.0000 C   0  0  0  0  0  0  0  0  0  0  0  0
    0.8277   -0.9738    0.0000 O   0  0  0  0  0  0  0  0  0  0  0  0
    0.5455   -0.1986    0.0000 C   0  0  0  0  0  0  0  0  0  0  0  0
    1.0758    0.4334    0.0000 O   0  0  0  0  0  0  0  0  0  0  0  0
   -0.2669   -0.0553    0.0000 C   0  0  0  0  0  0  0  0  0  0  0  0
   -1.0794   -0.1986    0.0000 C   0  0  0  0  0  0  0  0  0  0  0  0
   -1.6097    0.4334    0.0000 C   0  0  0  0  0  0  0  0  0  0  0  0
   -1.3275    1.2087    0.0000 C   0  0  0  0  0  0  0  0  0  0  0  0
   -0.5151    1.3519    0.0000 C   0  0  0  0  0  0  0  0  0  0  0  0
    0.0152    0.7199    0.0000 C   0  0  0  0  0  0  0  0  0  0  0  0
   -0.2669   -0.8803    0.0000 N   0  0  0  0  0  0  0  0  0  0  0  0
    0.4005   -1.3652    0.0000 C   0  0  0  0  0  0  0  0  0  0  0  0
    0.1456   -2.1498    0.0000 C   0  0  0  0  0  0  0  0  0  0  0  0
   -0.6794   -2.1498    0.0000 C   0  0  0  0  0  0  0  0  0  0  0  0
   -0.9344   -1.3652    0.0000 C   0  0  0  0  0  0  0  0  0  0  0  0
  1  2  1  0  0  0  0
  2  3  2  0  0  0  0
  3  4  1  0  0  0  0
  4  5  2  0  0  0  0
  5  6  1  0  0  0  0
  6  7  1  0  0  0  0
  6  8  2  0  0  0  0
  2  8  1  0  0  0  0
  8  9  1  0  0  0  0
  9 10  1  0  0  0  0
 10 11  2  0  0  0  0
 10 12  1  0  0  0  0
 12 13  1  0  0  0  0
 13 14  1  0  0  0  0
 14 15  1  0  0  0  0
 15 16  1  0  0  0  0
 16 17  1  0  0  0  0
 12 17  1  0  0  0  0
 12 18  1  0  0  0  0
 18 19  1  0  0  0  0
 19 20  2  0  0  0  0
 20 21  1  0  0  0  0
 21 22  2  0  0  0  0
 18 22  1  0  0  0  0
M  END
> <ID>
CPD_3725

$$$$
CPD_3730
  Mrv1822 09091914012D          

 25 26  0  0  0  0            999 V2000
   -1.4045   -9.5774    0.0000 C   0  0  0  0  0  0  0  0  0  0  0  0
   -0.6900   -9.1649    0.0000 C   0  0  0  0  0  0  0  0  0  0  0  0
    0.0244   -9.5774    0.0000 C   0  0  0  0  0  0  0  0  0  0  0  0
    0.7389   -9.1649    0.0000 C   0  0  0  0  0  0  0  0  0  0  0  0
    1.4534   -9.5774    0.0000 C   0  0  0  0  0  0  0  0  0  0  0  0
    2.1678   -9.1649    0.0000 C   0  0  0  0  0  0  0  0  0  0  0  0
    2.1678   -8.3399    0.0000 N   0  0  0  0  0  0  0  0  0  0  0  0
    2.8823   -9.5774    0.0000 C   0  0  0  0  0  0  0  0  0  0  0  0
    3.5968   -9.1649    0.0000 C   0  0  0  0  0  0  0  0  0  0  0  0
    3.5968   -8.3399    0.0000 O   0  0  0  0  0  0  0  0  0  0  0  0
    4.3113   -9.5774    0.0000 O   0  0  0  0  0  0  0  0  0  0  0  0
    5.0257   -9.1649    0.0000 C   0  0  0  0  0  0  0  0  0  0  0  0
    5.7402   -9.5774    0.0000 C   0  0  0  0  0  0  0  0  0  0  0  0
    6.4547   -9.1649    0.0000 C   0  0  0  0  0  0  0  0  0  0  0  0
    7.1691   -9.5774    0.0000 C   0  0  0  0  0  0  0  0  0  0  0  0
    7.2554  -10.3979    0.0000 N   0  0  0  0  0  0  0  0  0  0  0  0
    8.0624  -10.5694    0.0000 C   0  0  0  0  0  0  0  0  0  0  0  0
    8.4749   -9.8549    0.0000 C   0  0  0  0  0  0  0  0  0  0  0  0
    9.2999   -9.8549    0.0000 C   0  0  0  0  0  0  0  0  0  0  0  0
    9.7124  -10.5694    0.0000 C   0  0  0  0  0  0  0  0  0  0  0  0
    9.2999  -11.2839    0.0000 C   0  0  0  0  0  0  0  0  0  0  0  0
    8.4749  -11.2839    0.0000 C   0  0  0  0  0  0  0  0  0  0  0  0
    7.9228   -9.2418    0.0000 N   0  0  0  0  0  0  0  0  0  0  0  0
    8.0943   -8.4349    0.0000 C   0  0  0  0  0  0  0  0  0  0  0  0
    7.4813   -7.8828    0.0000 C   0  0  0  0  0  0  0  0  0  0  0  0
  1  2  1  0  0  0  0
  2  3  1  0  0  0  0
  3  4  1  0  0  0  0
  4  5  1  0  0  0  0
  5  6  1  0  0  0  0
  6  7  1  0  0  0  0
  6  8  1  0  0  0  0
  8  9  1  0  0  0  0
  9 10  2  0  0  0  0
  9 11  1  0  0  0  0
 11 12  1  0  0  0  0
 12 13  1  0  0  0  0
 13 14  1  0  0  0  0
 14 15  1  0  0  0  0
 15 16  2  0  0  0  0
 16 17  1  0  0  0  0
 17 18  2  0  0  0  0
 18 19  1  0  0  0  0
 19 20  2  0  0  0  0
 20 21  1  0  0  0  0
 21 22  2  0  0  0  0
 17 22  1  0  0  0  0
 18 23  1  0  0  0  0
 15 23  1  0  0  0  0
 23 24  1  0  0  0  0
 24 25  1  0  0  0  0
M  END
> <ID>
CPD_3730

$$$$
CPD_3735
  Mrv1822 09091914012D          

 22 22  0  0  0  0            999 V2000
    2.8579   -6.6000    0.0000 C   0  0  0  0  0  0  0  0  0  0  0  0
    3.5724   -6.1875    0.0000 C   0  0  0  0  0  0  0  0  0  0  0  0
    4.2868   -6.6000    0.0000 C   0  0  0  0  0  0  0  0  0  0  0  0
    5.0013   -6.1875    0.0000 C   0  0  0  0  0  0  0  0  0  0  0  0
    5.7158   -6.6000    0.0000 C   0  0  0  0  0  0  0  0  0  0  0  0
    6.4302   -6.1875    0.0000 C   0  0  0  0  0  0  0  0  0  0  0  0
    6.4302   -5.3625    0.0000 N   0  0  0  0  0  0  0  0  0  0  0  0
    7.1447   -6.6000    0.0000 C   0  0  0  0  0  0  0  0  0  0  0  0
    7.8592   -6.1875    0.0000 C   0  0  0  0  0  0  0  0  0  0  0  0
    7.8592   -5.3625    0.0000 O   0  0  0  0  0  0  0  0  0  0  0  0
    8.5737   -6.6000    0.0000 O   0  0  0  0  0  0  0  0  0  0  0  0
    9.2881   -6.1875    0.0000 C   0  0  0  0  0  0  0  0  0  0  0  0
   10.0026   -6.6000    0.0000 C   0  0  0  0  0  0  0  0  0  0  0  0
   10.7171   -6.1875    0.0000 C   0  0  0  0  0  0  0  0  0  0  0  0
   10.7171   -5.3625    0.0000 O   0  0  0  0  0  0  0  0  0  0  0  0
   11.4315   -4.9500    0.0000 C   0  0  0  0  0  0  0  0  0  0  0  0
   11.4315   -6.6000    0.0000 C   0  0  0  0  0  0  0  0  0  0  0  0
   12.1460   -6.1875    0.0000 O   0  0  0  0  0  0  0  0  0  0  0  0
   12.1460   -5.3625    0.0000 C   0  0  0  0  0  0  0  0  0  0  0  0
   11.4315   -7.4250    0.0000 C   0  0  0  0  0  0  0  0  0  0  0  0
   10.7171   -7.8375    0.0000 C   0  0  0  0  0  0  0  0  0  0  0  0
   10.0026   -7.4250    0.0000 C   0  0  0  0  0  0  0  0  0  0  0  0
  1  2  1  0  0  0  0
  2  3  1  0  0  0  0
  3  4  1  0  0  0  0
  4  5  1  0  0  0  0
  5  6  1  0  0  0  0
  6  7  1  0  0  0  0
  6  8  1  0  0  0  0
  8  9  1  0  0  0  0
  9 10  2  0  0  0  0
  9 11  1  0  0  0  0
 11 12  1  0  0  0  0
 12 13  1  0  0  0  0
 13 14  2  0  0  0  0
 14 15  1  0  0  0  0
 15 16  1  0  0  0  0
 14 17  1  0  0  0  0
 17 18  1  0  0  0  0
 18 19  1  0  0  0  0
 17 20  2  0  0  0  0
 20 21  1  0  0  0  0
 21 22  2  0  0  0  0
 13 22  1  0  0  0  0
M  END
> <ID>
CPD_3735

$$$$
CPD_3740
  Mrv1822 09091914012D          

 21 21  0  0  0  0            999 V2000
    1.4289   -4.9500    0.0000 C   0  0  0  0  0  0  0  0  0  0  0  0
    2.1434   -5.3625    0.0000 C   0  0  0  0  0  0  0  0  0  0  0  0
    2.8579   -4.9500    0.0000 C   0  0  0  0  0  0  0  0  0  0  0  0
    3.5724   -5.3625    0.0000 C   0  0  0  0  0  0  0  0  0  0  0  0
    4.2868   -4.9500    0.0000 C   0  0  0  0  0  0  0  0  0  0  0  0
    5.0013   -5.3625    0.0000 C   0  0  0  0  0  0  0  0  0  0  0  0
    5.0013   -6.1875    0.0000 N   0  0  0  0  0  0  0  0  0  0  0  0
    5.7158   -4.9500    0.0000 C   0  0  0  0  0  0  0  0  0  0  0  0
    6.4302   -5.3625    0.0000 C   0  0  0  0  0  0  0  0  0  0  0  0
    6.4302   -6.1875    0.0000 O   0  0  0  0  0  0  0  0  0  0  0  0
    7.1447   -4.9500    0.0000 O   0  0  0  0  0  0  0  0  0  0  0  0
    7.8592   -5.3625    0.0000 C   0  0  0  0  0  0  0  0  0  0  0  0
    8.5737   -4.9500    0.0000 C   0  0  0  0  0  0  0  0  0  0  0  0
    9.2881   -5.3625    0.0000 C   0  0  0  0  0  0  0  0  0  0  0  0
    9.2881   -6.1875    0.0000 C   0  0  0  0  0  0  0  0  0  0  0  0
   10.0026   -6.6000    0.0000 F   0  0  0  0  0  0  0  0  0  0  0  0
    8.5737   -6.6000    0.0000 C   0  0  0  0  0  0  0  0  0  0  0  0
    7.8592   -6.1875    0.0000 C   0  0  0  0  0  0  0  0  0  0  0  0
    8.5737   -4.1250    0.0000 C   0  0  0  0  0  0  0  0  0  0  0  0
    9.2881   -3.7125    0.0000 C   0  0  0  0  0  0  0  0  0  0  0  0
    7.8592   -3.7125    0.0000 O   0  0  0  0  0  0  0  0  0  0  0  0
  1  2  1  0  0  0  0
  2  3  1  0  0  0  0
  3  4  1  0  0  0  0
  4  5  1  0  0  0  0
  5  6  1  0  0  0  0
  6  7  1  0  0  0  0
  6  8  1  0  0  0  0
  8  9  1  0  0  0  0
  9 10  2  0  0  0  0
  9 11  1  0  0  0  0
 11 12  1  0  0  0  0
 12 13  2  0  0  0  0
 13 14  1  0  0  0  0
 14 15  2  0  0  0  0
 15 16  1  0  0  0  0
 15 17  1  0  0  0  0
 17 18  2  0  0  0  0
 12 18  1  0  0  0  0
 13 19  1  0  0  0  0
 19 20  1  0  0  0  0
 19 21  2  0  0  0  0
M  END
> <ID>
CPD_3740

$$$$
CPD_3745
  Mrv1822 09091914012D          

 26 27  0  0  0  0            999 V2000
   -1.9387    1.4009    0.0000 C   0  0  0  0  0  0  0  0  0  0  0  0
   -1.8525    0.5804    0.0000 C   0  0  0  0  0  0  0  0  0  0  0  0
   -1.0988    0.2448    0.0000 O   0  0  0  0  0  0  0  0  0  0  0  0
   -1.0126   -0.5757    0.0000 C   0  0  0  0  0  0  0  0  0  0  0  0
   -0.3714   -1.0949    0.0000 C   0  0  0  0  0  0  0  0  0  0  0  0
    0.4491   -1.0086    0.0000 N   0  0  0  0  0  0  0  0  0  0  0  0
    0.7846   -0.2549    0.0000 C   0  0  0  0  0  0  0  0  0  0  0  0
    1.4991   -0.6674    0.0000 C   0  0  0  0  0  0  0  0  0  0  0  0
    2.2136   -0.2549    0.0000 C   0  0  0  0  0  0  0  0  0  0  0  0
    2.2136    0.5701    0.0000 O   0  0  0  0  0  0  0  0  0  0  0  0
    2.9280   -0.6674    0.0000 O   0  0  0  0  0  0  0  0  0  0  0  0
    3.6425   -0.2549    0.0000 C   0  0  0  0  0  0  0  0  0  0  0  0
    4.3570   -0.6674    0.0000 C   0  0  0  0  0  0  0  0  0  0  0  0
    5.0714   -0.2549    0.0000 O   0  0  0  0  0  0  0  0  0  0  0  0
    5.7859   -0.6674    0.0000 C   0  0  0  0  0  0  0  0  0  0  0  0
    6.5004   -0.2549    0.0000 C   0  0  0  0  0  0  0  0  0  0  0  0
    7.2149   -0.6674    0.0000 O   0  0  0  0  0  0  0  0  0  0  0  0
    7.9293   -0.2549    0.0000 C   0  0  0  0  0  0  0  0  0  0  0  0
    0.0000    0.0000    0.0000 C   0  0  0  0  0  0  0  0  0  0  0  0
    0.0000    0.8250    0.0000 C   0  0  0  0  0  0  0  0  0  0  0  0
    0.7846    1.0799    0.0000 C   0  0  0  0  0  0  0  0  0  0  0  0
    1.2695    0.4125    0.0000 C   0  0  0  0  0  0  0  0  0  0  0  0
   -0.8906   -1.7360    0.0000 C   0  0  0  0  0  0  0  0  0  0  0  0
   -0.8044   -2.5565    0.0000 O   0  0  0  0  0  0  0  0  0  0  0  0
   -1.5318   -1.2168    0.0000 C   0  0  0  0  0  0  0  0  0  0  0  0
   -2.3522   -1.3030    0.0000 O   0  0  0  0  0  0  0  0  0  0  0  0
  1  2  1  0  0  0  0
  2  3  1  0  0  0  0
  3  4  1  0  0  0  0
  4  5  2  0  0  0  0
  5  6  1  0  0  0  0
  6  7  1  0  0  0  0
  7  8  1  0  0  0  0
  8  9  1  0  0  0  0
  9 10  2  0  0  0  0
  9 11  1  0  0  0  0
 11 12  1  0  0  0  0
 12 13  1  0  0  0  0
 13 14  1  0  0  0  0
 14 15  1  0  0  0  0
 15 16  1  0  0  0  0
 16 17  1  0  0  0  0
 17 18  1  0  0  0  0
  7 19  1  0  0  0  0
 19 20  1  0  0  0  0
 20 21  1  0  0  0  0
 21 22  1  0  0  0  0
  7 22  1  0  0  0  0
  5 23  1  0  0  0  0
 23 24  2  0  0  0  0
 23 25  1  0  0  0  0
  4 25  1  0  0  0  0
 25 26  2  0  0  0  0
M  END
> <ID>
CPD_3745

$$$$
CPD_3750
  Mrv1822 09091914012D          

 27 29  0  0  0  0            999 V2000
    1.5169   -2.1957    0.0000 C   0  0  0  0  0  0  0  0  0  0  0  0
    1.5169   -3.0207    0.0000 C   0  0  0  0  0  0  0  0  0  0  0  0
    0.8024   -3.4332    0.0000 O   0  0  0  0  0  0  0  0  0  0  0  0
    0.8024   -4.2582    0.0000 C   0  0  0  0  0  0  0  0  0  0  0  0
    0.2190   -4.8415    0.0000 C   0  0  0  0  0  0  0  0  0  0  0  0
   -0.6060   -4.8415    0.0000 N   0  0  0  0  0  0  0  0  0  0  0  0
   -1.0185   -4.1271    0.0000 C   0  0  0  0  0  0  0  0  0  0  0  0
   -1.6859   -4.6120    0.0000 C   0  0  0  0  0  0  0  0  0  0  0  0
   -2.4396   -4.2764    0.0000 C   0  0  0  0  0  0  0  0  0  0  0  0
   -3.1070   -4.7614    0.0000 O   0  0  0  0  0  0  0  0  0  0  0  0
   -2.5258   -3.4560    0.0000 O   0  0  0  0  0  0  0  0  0  0  0  0
   -3.2795   -3.1204    0.0000 C   0  0  0  0  0  0  0  0  0  0  0  0
   -3.9469   -3.6053    0.0000 C   0  0  0  0  0  0  0  0  0  0  0  0
   -4.7006   -3.2698    0.0000 C   0  0  0  0  0  0  0  0  0  0  0  0
   -4.7869   -2.4493    0.0000 C   0  0  0  0  0  0  0  0  0  0  0  0
   -4.1194   -1.9644    0.0000 C   0  0  0  0  0  0  0  0  0  0  0  0
   -3.3657   -2.2999    0.0000 C   0  0  0  0  0  0  0  0  0  0  0  0
   -2.6983   -1.8150    0.0000 C   0  0  0  0  0  0  0  0  0  0  0  0
   -1.9446   -2.1506    0.0000 C   0  0  0  0  0  0  0  0  0  0  0  0
   -0.2648   -3.7915    0.0000 C   0  0  0  0  0  0  0  0  0  0  0  0
   -0.3510   -2.9710    0.0000 C   0  0  0  0  0  0  0  0  0  0  0  0
   -1.1580   -2.7995    0.0000 C   0  0  0  0  0  0  0  0  0  0  0  0
   -1.5705   -3.5140    0.0000 C   0  0  0  0  0  0  0  0  0  0  0  0
    0.8024   -5.4249    0.0000 C   0  0  0  0  0  0  0  0  0  0  0  0
    0.8024   -6.2499    0.0000 O   0  0  0  0  0  0  0  0  0  0  0  0
    1.3857   -4.8415    0.0000 C   0  0  0  0  0  0  0  0  0  0  0  0
    2.2107   -4.8415    0.0000 O   0  0  0  0  0  0  0  0  0  0  0  0
  1  2  1  0  0  0  0
  2  3  1  0  0  0  0
  3  4  1  0  0  0  0
  4  5  2  0  0  0  0
  5  6  1  0  0  0  0
  6  7  1  0  0  0  0
  7  8  1  0  0  0  0
  8  9  1  0  0  0  0
  9 10  2  0  0  0  0
  9 11  1  0  0  0  0
 11 12  1  0  0  0  0
 12 13  1  0  0  0  0
 13 14  1  0  0  0  0
 14 15  1  0  0  0  0
 15 16  1  0  0  0  0
 16 17  1  0  0  0  0
 12 17  1  0  0  0  0
 17 18  1  0  0  0  0
 18 19  1  0  0  0  0
  7 20  1  0  0  0  0
 20 21  1  0  0  0  0
 21 22  1  0  0  0  0
 22 23  1  0  0  0  0
  7 23  1  0  0  0  0
  5 24  1  0  0  0  0
 24 25  2  0  0  0  0
 24 26  1  0  0  0  0
  4 26  1  0  0  0  0
 26 27  2  0  0  0  0
M  END
> <ID>
CPD_3750

$$$$
CPD_3755
  Mrv1822 09091914012D          

 29 32  0  0  0  0            999 V2000
   -3.5101   -4.4181    0.0000 C   0  0  0  0  0  0  0  0  0  0  0  0
   -2.7564   -4.7536    0.0000 C   0  0  0  0  0  0  0  0  0  0  0  0
   -2.0890   -4.2687    0.0000 O   0  0  0  0  0  0  0  0  0  0  0  0
   -1.3353   -4.6043    0.0000 C   0  0  0  0  0  0  0  0  0  0  0  0
   -0.5651   -4.3086    0.0000 C   0  0  0  0  0  0  0  0  0  0  0  0
   -0.2295   -3.5549    0.0000 N   0  0  0  0  0  0  0  0  0  0  0  0
   -0.7145   -2.8875    0.0000 C   0  0  0  0  0  0  0  0  0  0  0  0
    0.0000   -2.4750    0.0000 C   0  0  0  0  0  0  0  0  0  0  0  0
    0.7145   -2.8875    0.0000 C   0  0  0  0  0  0  0  0  0  0  0  0
    0.7145   -3.7125    0.0000 O   0  0  0  0  0  0  0  0  0  0  0  0
    1.4289   -2.4750    0.0000 O   0  0  0  0  0  0  0  0  0  0  0  0
    1.4289   -1.6500    0.0000 C   0  0  0  0  0  0  0  0  0  0  0  0
    0.7145   -1.2375    0.0000 C   0  0  0  0  0  0  0  0  0  0  0  0
    0.7145   -0.4125    0.0000 C   0  0  0  0  0  0  0  0  0  0  0  0
    1.4289    0.0000    0.0000 C   0  0  0  0  0  0  0  0  0  0  0  0
    2.1434   -0.4125    0.0000 C   0  0  0  0  0  0  0  0  0  0  0  0
    2.8579    0.0000    0.0000 C   0  0  0  0  0  0  0  0  0  0  0  0
    3.5724   -0.4125    0.0000 N   0  0  0  0  0  0  0  0  0  0  0  0
    3.5724   -1.2375    0.0000 C   0  0  0  0  0  0  0  0  0  0  0  0
    2.8579   -1.6500    0.0000 C   0  0  0  0  0  0  0  0  0  0  0  0
    2.1434   -1.2375    0.0000 C   0  0  0  0  0  0  0  0  0  0  0  0
   -1.3276   -3.4395    0.0000 C   0  0  0  0  0  0  0  0  0  0  0  0
   -2.0420   -3.0270    0.0000 C   0  0  0  0  0  0  0  0  0  0  0  0
   -1.8705   -2.2201    0.0000 C   0  0  0  0  0  0  0  0  0  0  0  0
   -1.0500   -2.1338    0.0000 C   0  0  0  0  0  0  0  0  0  0  0  0
   -0.2695   -5.0788    0.0000 C   0  0  0  0  0  0  0  0  0  0  0  0
    0.4842   -5.4144    0.0000 O   0  0  0  0  0  0  0  0  0  0  0  0
   -1.0397   -5.3745    0.0000 C   0  0  0  0  0  0  0  0  0  0  0  0
   -1.3752   -6.1281    0.0000 O   0  0  0  0  0  0  0  0  0  0  0  0
  1  2  1  0  0  0  0
  2  3  1  0  0  0  0
  3  4  1  0  0  0  0
  4  5  2  0  0  0  0
  5  6  1  0  0  0  0
  6  7  1  0  0  0  0
  7  8  1  0  0  0  0
  8  9  1  0  0  0  0
  9 10  2  0  0  0  0
  9 11  1  0  0  0  0
 11 12  1  0  0  0  0
 12 13  2  0  0  0  0
 13 14  1  0  0  0  0
 14 15  2  0  0  0  0
 15 16  1  0  0  0  0
 16 17  2  0  0  0  0
 17 18  1  0  0  0  0
 18 19  2  0  0  0  0
 19 20  1  0  0  0  0
 20 21  2  0  0  0  0
 12 21  1  0  0  0  0
 16 21  1  0  0  0  0
  7 22  1  0  0  0  0
 22 23  1  0  0  0  0
 23 24  1  0  0  0  0
 24 25  1  0  0  0  0
  7 25  1  0  0  0  0
  5 26  1  0  0  0  0
 26 27  2  0  0  0  0
 26 28  1  0  0  0  0
  4 28  1  0  0  0  0
 28 29  2  0  0  0  0
M  END
> <ID>
CPD_3755

$$$$
CPD_3760
  Mrv1822 09091914012D          

 31 34  0  0  0  0            999 V2000
   -5.2252   -4.9781    0.0000 F   0  0  0  0  0  0  0  0  0  0  0  0
   -4.7402   -5.6456    0.0000 C   0  0  0  0  0  0  0  0  0  0  0  0
   -3.9198   -5.5593    0.0000 C   0  0  0  0  0  0  0  0  0  0  0  0
   -3.5842   -4.8057    0.0000 C   0  0  0  0  0  0  0  0  0  0  0  0
   -2.7637   -4.7194    0.0000 S   0  0  0  0  0  0  0  0  0  0  0  0
   -2.8500   -3.8989    0.0000 O   0  0  0  0  0  0  0  0  0  0  0  0
   -2.6775   -5.5399    0.0000 O   0  0  0  0  0  0  0  0  0  0  0  0
   -1.9432   -4.6332    0.0000 C   0  0  0  0  0  0  0  0  0  0  0  0
   -1.6077   -3.8795    0.0000 C   0  0  0  0  0  0  0  0  0  0  0  0
   -2.0202   -3.1650    0.0000 C   0  0  0  0  0  0  0  0  0  0  0  0
   -1.4681   -2.5519    0.0000 C   0  0  0  0  0  0  0  0  0  0  0  0
   -0.7145   -2.8875    0.0000 C   0  0  0  0  0  0  0  0  0  0  0  0
   -0.8007   -3.7080    0.0000 O   0  0  0  0  0  0  0  0  0  0  0  0
    0.0000   -2.4750    0.0000 C   0  0  0  0  0  0  0  0  0  0  0  0
    0.7145   -2.8875    0.0000 O   0  0  0  0  0  0  0  0  0  0  0  0
    0.0000   -1.6500    0.0000 O   0  0  0  0  0  0  0  0  0  0  0  0
    0.7145   -1.2375    0.0000 C   0  0  0  0  0  0  0  0  0  0  0  0
    0.7145   -0.4125    0.0000 C   0  0  0  0  0  0  0  0  0  0  0  0
    1.4289    0.0000    0.0000 C   0  0  0  0  0  0  0  0  0  0  0  0
    2.1434   -0.4125    0.0000 C   0  0  0  0  0  0  0  0  0  0  0  0
    2.8579    0.0000    0.0000 C   0  0  0  0  0  0  0  0  0  0  0  0
    3.5724   -0.4125    0.0000 C   0  0  0  0  0  0  0  0  0  0  0  0
    4.2868   -0.0000    0.0000 Br  0  0  0  0  0  0  0  0  0  0  0  0
    3.5724   -1.2375    0.0000 C   0  0  0  0  0  0  0  0  0  0  0  0
    2.8579   -1.6500    0.0000 C   0  0  0  0  0  0  0  0  0  0  0  0
    2.1434   -1.2375    0.0000 C   0  0  0  0  0  0  0  0  0  0  0  0
    1.4289   -1.6500    0.0000 C   0  0  0  0  0  0  0  0  0  0  0  0
   -3.4348   -6.2268    0.0000 C   0  0  0  0  0  0  0  0  0  0  0  0
   -3.7704   -6.9804    0.0000 C   0  0  0  0  0  0  0  0  0  0  0  0
   -4.5909   -7.0667    0.0000 C   0  0  0  0  0  0  0  0  0  0  0  0
   -5.0758   -6.3992    0.0000 C   0  0  0  0  0  0  0  0  0  0  0  0
  1  2  1  0  0  0  0
  2  3  2  0  0  0  0
  3  4  1  0  0  0  0
  4  5  1  0  0  0  0
  5  6  2  0  0  0  0
  5  7  2  0  0  0  0
  5  8  1  0  0  0  0
  8  9  1  0  0  0  0
  9 10  2  0  0  0  0
 10 11  1  0  0  0  0
 11 12  2  0  0  0  0
 12 13  1  0  0  0  0
  9 13  1  0  0  0  0
 12 14  1  0  0  0  0
 14 15  2  0  0  0  0
 14 16  1  0  0  0  0
 16 17  1  0  0  0  0
 17 18  2  0  0  0  0
 18 19  1  0  0  0  0
 19 20  2  0  0  0  0
 20 21  1  0  0  0  0
 21 22  2  0  0  0  0
 22 23  1  0  0  0  0
 22 24  1  0  0  0  0
 24 25  2  0  0  0  0
 25 26  1  0  0  0  0
 20 26  1  0  0  0  0
 26 27  2  0  0  0  0
 17 27  1  0  0  0  0
  3 28  1  0  0  0  0
 28 29  2  0  0  0  0
 29 30  1  0  0  0  0
 30 31  2  0  0  0  0
  2 31  1  0  0  0  0
M  END
> <ID>
CPD_3760

$$$$
CPD_3765
  Mrv1822 09091914012D          

 28 30  0  0  0  0            999 V2000
    3.2837   -5.7011    0.0000 O   0  0  0  0  0  0  0  0  0  0  0  0
    2.5692   -6.1136    0.0000 C   0  0  0  0  0  0  0  0  0  0  0  0
    2.5692   -6.9386    0.0000 C   0  0  0  0  0  0  0  0  0  0  0  0
    3.2366   -7.4235    0.0000 C   0  0  0  0  0  0  0  0  0  0  0  0
    2.9817   -8.2081    0.0000 C   0  0  0  0  0  0  0  0  0  0  0  0
    2.1567   -8.2081    0.0000 C   0  0  0  0  0  0  0  0  0  0  0  0
    1.6718   -8.8756    0.0000 C   0  0  0  0  0  0  0  0  0  0  0  0
    2.0073   -9.6293    0.0000 O   0  0  0  0  0  0  0  0  0  0  0  0
    1.5224  -10.2967    0.0000 C   0  0  0  0  0  0  0  0  0  0  0  0
    0.7019  -10.2105    0.0000 O   0  0  0  0  0  0  0  0  0  0  0  0
    1.8580  -11.0504    0.0000 C   0  0  0  0  0  0  0  0  0  0  0  0
    2.6649  -11.2219    0.0000 C   0  0  0  0  0  0  0  0  0  0  0  0
    2.7512  -12.0424    0.0000 C   0  0  0  0  0  0  0  0  0  0  0  0
    1.9975  -12.3779    0.0000 C   0  0  0  0  0  0  0  0  0  0  0  0
    1.8260  -13.1849    0.0000 C   0  0  0  0  0  0  0  0  0  0  0  0
    2.4391  -13.7369    0.0000 S   0  0  0  0  0  0  0  0  0  0  0  0
    1.8870  -14.3500    0.0000 O   0  0  0  0  0  0  0  0  0  0  0  0
    2.9911  -13.1238    0.0000 O   0  0  0  0  0  0  0  0  0  0  0  0
    3.0522  -14.2890    0.0000 C   0  0  0  0  0  0  0  0  0  0  0  0
    2.8806  -15.0959    0.0000 C   0  0  0  0  0  0  0  0  0  0  0  0
    3.4937  -15.6480    0.0000 C   0  0  0  0  0  0  0  0  0  0  0  0
    4.2784  -15.3930    0.0000 F   0  0  0  0  0  0  0  0  0  0  0  0
    3.3222  -16.4550    0.0000 C   0  0  0  0  0  0  0  0  0  0  0  0
    2.5376  -16.7099    0.0000 C   0  0  0  0  0  0  0  0  0  0  0  0
    1.9245  -16.1579    0.0000 C   0  0  0  0  0  0  0  0  0  0  0  0
    2.0960  -15.3509    0.0000 C   0  0  0  0  0  0  0  0  0  0  0  0
    1.4455  -11.7648    0.0000 O   0  0  0  0  0  0  0  0  0  0  0  0
    1.9018   -7.4235    0.0000 O   0  0  0  0  0  0  0  0  0  0  0  0
  1  2  1  0  0  0  0
  2  3  1  0  0  0  0
  3  4  2  0  0  0  0
  4  5  1  0  0  0  0
  5  6  2  0  0  0  0
  6  7  1  0  0  0  0
  7  8  1  0  0  0  0
  8  9  1  0  0  0  0
  9 10  2  0  0  0  0
  9 11  1  0  0  0  0
 11 12  2  0  0  0  0
 12 13  1  0  0  0  0
 13 14  2  0  0  0  0
 14 15  1  0  0  0  0
 15 16  1  0  0  0  0
 16 17  2  0  0  0  0
 16 18  2  0  0  0  0
 16 19  1  0  0  0  0
 19 20  1  0  0  0  0
 20 21  2  0  0  0  0
 21 22  1  0  0  0  0
 21 23  1  0  0  0  0
 23 24  2  0  0  0  0
 24 25  1  0  0  0  0
 25 26  2  0  0  0  0
 20 26  1  0  0  0  0
 14 27  1  0  0  0  0
 11 27  1  0  0  0  0
  6 28  1  0  0  0  0
  3 28  1  0  0  0  0
M  END
> <ID>
CPD_3765

$$$$
CPD_3770
  Mrv1822 09091914012D          

 24 25  0  0  0  0            999 V2000
    1.4289   -2.4750    0.0000 C   0  0  0  0  0  0  0  0  0  0  0  0
    2.1434   -2.8875    0.0000 O   0  0  0  0  0  0  0  0  0  0  0  0
    2.1434   -3.7125    0.0000 C   0  0  0  0  0  0  0  0  0  0  0  0
    1.4289   -4.1250    0.0000 C   0  0  0  0  0  0  0  0  0  0  0  0
    1.4289   -4.9500    0.0000 C   0  0  0  0  0  0  0  0  0  0  0  0
    2.1434   -5.3625    0.0000 C   0  0  0  0  0  0  0  0  0  0  0  0
    2.8579   -4.9500    0.0000 C   0  0  0  0  0  0  0  0  0  0  0  0
    2.8579   -4.1250    0.0000 C   0  0  0  0  0  0  0  0  0  0  0  0
    3.5724   -3.7125    0.0000 N   0  0  0  0  0  0  0  0  0  0  0  0
    3.5724   -2.8875    0.0000 C   0  0  0  0  0  0  0  0  0  0  0  0
    4.2868   -2.4750    0.0000 C   0  0  0  0  0  0  0  0  0  0  0  0
    5.0013   -2.8875    0.0000 O   0  0  0  0  0  0  0  0  0  0  0  0
    4.2868   -1.6500    0.0000 O   0  0  0  0  0  0  0  0  0  0  0  0
    5.0013   -1.2375    0.0000 C   0  0  0  0  0  0  0  0  0  0  0  0
    5.0013   -0.4125    0.0000 C   0  0  0  0  0  0  0  0  0  0  0  0
    5.7158    0.0000    0.0000 C   0  0  0  0  0  0  0  0  0  0  0  0
    5.7158    0.8250    0.0000 F   0  0  0  0  0  0  0  0  0  0  0  0
    6.4302   -0.4125    0.0000 C   0  0  0  0  0  0  0  0  0  0  0  0
    6.4302   -1.2375    0.0000 C   0  0  0  0  0  0  0  0  0  0  0  0
    5.7158   -1.6500    0.0000 C   0  0  0  0  0  0  0  0  0  0  0  0
    4.2868   -4.1250    0.0000 S   0  0  0  0  0  0  0  0  0  0  0  0
    5.0013   -4.5375    0.0000 C   0  0  0  0  0  0  0  0  0  0  0  0
    4.6993   -3.4105    0.0000 O   0  0  0  0  0  0  0  0  0  0  0  0
    3.8743   -4.8395    0.0000 O   0  0  0  0  0  0  0  0  0  0  0  0
  1  2  1  0  0  0  0
  2  3  1  0  0  0  0
  3  4  2  0  0  0  0
  4  5  1  0  0  0  0
  5  6  2  0  0  0  0
  6  7  1  0  0  0  0
  7  8  2  0  0  0  0
  3  8  1  0  0  0  0
  8  9  1  0  0  0  0
  9 10  1  0  0  0  0
 10 11  1  0  0  0  0
 11 12  2  0  0  0  0
 11 13  1  0  0  0  0
 13 14  1  0  0  0  0
 14 15  2  0  0  0  0
 15 16  1  0  0  0  0
 16 17  1  0  0  0  0
 16 18  2  0  0  0  0
 18 19  1  0  0  0  0
 19 20  2  0  0  0  0
 14 20  1  0  0  0  0
  9 21  1  0  0  0  0
 21 22  1  0  0  0  0
 21 23  2  0  0  0  0
 21 24  2  0  0  0  0
M  END
> <ID>
CPD_3770

$$$$
CPD_3775
  Mrv1822 09091914012D          

 29 31  0  0  0  0            999 V2000
   -2.4034   -1.7527    0.0000 C   0  0  0  0  0  0  0  0  0  0  0  0
   -1.6889   -1.3402    0.0000 C   0  0  0  0  0  0  0  0  0  0  0  0
   -0.9744   -1.7527    0.0000 C   0  0  0  0  0  0  0  0  0  0  0  0
   -0.2600   -1.3402    0.0000 O   0  0  0  0  0  0  0  0  0  0  0  0
   -0.9744   -2.5777    0.0000 C   0  0  0  0  0  0  0  0  0  0  0  0
   -1.6889   -2.9902    0.0000 C   0  0  0  0  0  0  0  0  0  0  0  0
   -1.6889   -3.8152    0.0000 C   0  0  0  0  0  0  0  0  0  0  0  0
   -2.4034   -4.2277    0.0000 O   0  0  0  0  0  0  0  0  0  0  0  0
   -0.9744   -4.2277    0.0000 C   0  0  0  0  0  0  0  0  0  0  0  0
   -0.2600   -3.8152    0.0000 C   0  0  0  0  0  0  0  0  0  0  0  0
   -0.2600   -2.9902    0.0000 C   0  0  0  0  0  0  0  0  0  0  0  0
    0.4545   -2.5777    0.0000 O   0  0  0  0  0  0  0  0  0  0  0  0
    1.1690   -2.9902    0.0000 C   0  0  0  0  0  0  0  0  0  0  0  0
    1.1690   -3.8152    0.0000 O   0  0  0  0  0  0  0  0  0  0  0  0
    1.8835   -2.5777    0.0000 C   0  0  0  0  0  0  0  0  0  0  0  0
    2.4138   -1.9457    0.0000 C   0  0  0  0  0  0  0  0  0  0  0  0
    3.2262   -2.0890    0.0000 C   0  0  0  0  0  0  0  0  0  0  0  0
    3.5084   -2.8642    0.0000 C   0  0  0  0  0  0  0  0  0  0  0  0
    2.9781   -3.4962    0.0000 C   0  0  0  0  0  0  0  0  0  0  0  0
    2.1656   -3.3529    0.0000 C   0  0  0  0  0  0  0  0  0  0  0  0
    1.3532   -1.9457    0.0000 O   0  0  0  0  0  0  0  0  0  0  0  0
    1.6353   -1.1705    0.0000 C   0  0  0  0  0  0  0  0  0  0  0  0
    1.1050   -0.5385    0.0000 C   0  0  0  0  0  0  0  0  0  0  0  0
    1.3872    0.2368    0.0000 C   0  0  0  0  0  0  0  0  0  0  0  0
    2.1997    0.3800    0.0000 C   0  0  0  0  0  0  0  0  0  0  0  0
    2.4818    1.1553    0.0000 O   0  0  0  0  0  0  0  0  0  0  0  0
    1.9515    1.7873    0.0000 C   0  0  0  0  0  0  0  0  0  0  0  0
    2.7300   -0.2520    0.0000 C   0  0  0  0  0  0  0  0  0  0  0  0
    2.4478   -1.0272    0.0000 C   0  0  0  0  0  0  0  0  0  0  0  0
  1  2  1  0  0  0  0
  2  3  1  0  0  0  0
  3  4  2  0  0  0  0
  3  5  1  0  0  0  0
  5  6  2  0  0  0  0
  6  7  1  0  0  0  0
  7  8  1  0  0  0  0
  7  9  2  0  0  0  0
  9 10  1  0  0  0  0
 10 11  2  0  0  0  0
  5 11  1  0  0  0  0
 11 12  1  0  0  0  0
 12 13  1  0  0  0  0
 13 14  2  0  0  0  0
 13 15  1  0  0  0  0
 15 16  1  0  0  0  0
 16 17  1  0  0  0  0
 17 18  1  0  0  0  0
 18 19  1  0  0  0  0
 19 20  1  0  0  0  0
 15 20  1  0  0  0  0
 15 21  1  0  0  0  0
 21 22  1  0  0  0  0
 22 23  2  0  0  0  0
 23 24  1  0  0  0  0
 24 25  2  0  0  0  0
 25 26  1  0  0  0  0
 26 27  1  0  0  0  0
 25 28  1  0  0  0  0
 28 29  2  0  0  0  0
 22 29  1  0  0  0  0
M  END
> <ID>
CPD_3775

$$$$
CPD_3780
  Mrv1822 09091914012D          

 37 41  0  0  0  0            999 V2000
   -5.7158    2.4750    0.0000 O   0  0  0  0  0  0  0  0  0  0  0  0
   -5.0013    2.0625    0.0000 C   0  0  0  0  0  0  0  0  0  0  0  0
   -5.0013    1.2375    0.0000 O   0  0  0  0  0  0  0  0  0  0  0  0
   -4.2868    2.4750    0.0000 C   0  0  0  0  0  0  0  0  0  0  0  0
   -4.2868    3.3000    0.0000 C   0  0  0  0  0  0  0  0  0  0  0  0
   -5.0013    3.7125    0.0000 O   0  0  0  0  0  0  0  0  0  0  0  0
   -3.5724    3.7125    0.0000 C   0  0  0  0  0  0  0  0  0  0  0  0
   -2.8579    3.3000    0.0000 C   0  0  0  0  0  0  0  0  0  0  0  0
   -2.1434    3.7125    0.0000 C   0  0  0  0  0  0  0  0  0  0  0  0
   -1.4289    3.3000    0.0000 C   0  0  0  0  0  0  0  0  0  0  0  0
   -1.4289    2.4750    0.0000 C   0  0  0  0  0  0  0  0  0  0  0  0
   -0.7145    2.0625    0.0000 O   0  0  0  0  0  0  0  0  0  0  0  0
    0.0000    2.4750    0.0000 C   0  0  0  0  0  0  0  0  0  0  0  0
    0.0000    3.3000    0.0000 O   0  0  0  0  0  0  0  0  0  0  0  0
    0.7145    2.0625    0.0000 C   0  0  0  0  0  0  0  0  0  0  0  0
    1.4289    2.4750    0.0000 C   0  0  0  0  0  0  0  0  0  0  0  0
    2.1434    2.0625    0.0000 C   0  0  0  0  0  0  0  0  0  0  0  0
    2.1434    1.2375    0.0000 O   0  0  0  0  0  0  0  0  0  0  0  0
    2.8579    2.4750    0.0000 N   0  0  0  0  0  0  0  0  0  0  0  0
    3.5724    2.0625    0.0000 C   0  0  0  0  0  0  0  0  0  0  0  0
    4.2868    2.4750    0.0000 C   0  0  0  0  0  0  0  0  0  0  0  0
    5.0013    2.0625    0.0000 C   0  0  0  0  0  0  0  0  0  0  0  0
    5.0013    1.2375    0.0000 C   0  0  0  0  0  0  0  0  0  0  0  0
    4.2868    0.8250    0.0000 C   0  0  0  0  0  0  0  0  0  0  0  0
    3.5724    1.2375    0.0000 C   0  0  0  0  0  0  0  0  0  0  0  0
    5.7158    0.8250    0.0000 C   0  0  0  0  0  0  0  0  0  0  0  0
    5.8020    0.0045    0.0000 N   0  0  0  0  0  0  0  0  0  0  0  0
    6.6090   -0.1670    0.0000 C   0  0  0  0  0  0  0  0  0  0  0  0
    7.0215    0.5475    0.0000 C   0  0  0  0  0  0  0  0  0  0  0  0
    6.4694    1.1606    0.0000 N   0  0  0  0  0  0  0  0  0  0  0  0
    7.8465    0.5475    0.0000 C   0  0  0  0  0  0  0  0  0  0  0  0
    8.2590   -0.1670    0.0000 C   0  0  0  0  0  0  0  0  0  0  0  0
    7.8465   -0.8815    0.0000 C   0  0  0  0  0  0  0  0  0  0  0  0
    7.0215   -0.8815    0.0000 C   0  0  0  0  0  0  0  0  0  0  0  0
   -2.1434    2.0625    0.0000 C   0  0  0  0  0  0  0  0  0  0  0  0
   -2.8579    2.4750    0.0000 C   0  0  0  0  0  0  0  0  0  0  0  0
   -3.5724    2.0625    0.0000 C   0  0  0  0  0  0  0  0  0  0  0  0
  1  2  1  0  0  0  0
  2  3  2  0  0  0  0
  2  4  1  0  0  0  0
  4  5  2  0  0  0  0
  5  6  1  0  0  0  0
  5  7  1  0  0  0  0
  7  8  2  0  0  0  0
  8  9  1  0  0  0  0
  9 10  2  0  0  0  0
 10 11  1  0  0  0  0
 11 12  1  0  0  0  0
 12 13  1  0  0  0  0
 13 14  2  0  0  0  0
 13 15  1  0  0  0  0
 15 16  1  0  0  0  0
 16 17  1  0  0  0  0
 17 18  2  0  0  0  0
 17 19  1  0  0  0  0
 19 20  1  0  0  0  0
 20 21  2  0  0  0  0
 21 22  1  0  0  0  0
 22 23  2  0  0  0  0
 23 24  1  0  0  0  0
 24 25  2  0  0  0  0
 20 25  1  0  0  0  0
 23 26  1  0  0  0  0
 26 27  2  0  0  0  0
 27 28  1  0  0  0  0
 28 29  2  0  0  0  0
 29 30  1  0  0  0  0
 26 30  1  0  0  0  0
 29 31  1  0  0  0  0
 31 32  2  0  0  0  0
 32 33  1  0  0  0  0
 33 34  2  0  0  0  0
 28 34  1  0  0  0  0
 11 35  2  0  0  0  0
 35 36  1  0  0  0  0
  8 36  1  0  0  0  0
 36 37  2  0  0  0  0
  4 37  1  0  0  0  0
M  END
> <ID>
CPD_3780

$$$$
CPD_3785
  Mrv1822 09091914012D          

 33 35  0  0  0  0            999 V2000
   -2.8579   -3.3000    0.0000 C   0  0  0  0  0  0  0  0  0  0  0  0
   -2.1434   -2.8875    0.0000 C   0  0  0  0  0  0  0  0  0  0  0  0
   -2.1434   -2.0625    0.0000 C   0  0  0  0  0  0  0  0  0  0  0  0
   -1.4289   -1.6500    0.0000 C   0  0  0  0  0  0  0  0  0  0  0  0
   -1.4289   -0.8250    0.0000 C   0  0  0  0  0  0  0  0  0  0  0  0
   -0.7145   -2.0625    0.0000 C   0  0  0  0  0  0  0  0  0  0  0  0
   -0.7145   -2.8875    0.0000 C   0  0  0  0  0  0  0  0  0  0  0  0
    0.0000   -3.3000    0.0000 C   0  0  0  0  0  0  0  0  0  0  0  0
   -1.4289   -3.3000    0.0000 C   0  0  0  0  0  0  0  0  0  0  0  0
    0.0000   -1.6500    0.0000 S   0  0  0  0  0  0  0  0  0  0  0  0
    0.4125   -2.3645    0.0000 O   0  0  0  0  0  0  0  0  0  0  0  0
   -0.4125   -0.9355    0.0000 O   0  0  0  0  0  0  0  0  0  0  0  0
    0.7145   -1.2375    0.0000 N   0  0  0  0  0  0  0  0  0  0  0  0
    1.4289   -1.6500    0.0000 C   0  0  0  0  0  0  0  0  0  0  0  0
    2.1434   -1.2375    0.0000 C   0  0  0  0  0  0  0  0  0  0  0  0
    2.1434   -0.4125    0.0000 O   0  0  0  0  0  0  0  0  0  0  0  0
    2.8579   -1.6500    0.0000 O   0  0  0  0  0  0  0  0  0  0  0  0
    3.5724   -1.2375    0.0000 C   0  0  0  0  0  0  0  0  0  0  0  0
    3.5724   -0.4125    0.0000 N   0  0  0  0  0  0  0  0  0  0  0  0
    4.2868    0.0000    0.0000 C   0  0  0  0  0  0  0  0  0  0  0  0
    4.2868    0.8250    0.0000 O   0  0  0  0  0  0  0  0  0  0  0  0
    5.0013   -0.4125    0.0000 C   0  0  0  0  0  0  0  0  0  0  0  0
    5.0013   -1.2375    0.0000 C   0  0  0  0  0  0  0  0  0  0  0  0
    4.2868   -1.6500    0.0000 C   0  0  0  0  0  0  0  0  0  0  0  0
    5.7158   -1.6500    0.0000 C   0  0  0  0  0  0  0  0  0  0  0  0
    6.4302   -1.2375    0.0000 N   0  0  0  0  0  0  0  0  0  0  0  0
    5.7158   -2.4750    0.0000 O   0  0  0  0  0  0  0  0  0  0  0  0
    0.7145   -0.4125    0.0000 C   0  0  0  0  0  0  0  0  0  0  0  0
    0.0000    0.0000    0.0000 C   0  0  0  0  0  0  0  0  0  0  0  0
    0.0000    0.8250    0.0000 C   0  0  0  0  0  0  0  0  0  0  0  0
    0.7145    1.2375    0.0000 C   0  0  0  0  0  0  0  0  0  0  0  0
    1.4289    0.8250    0.0000 C   0  0  0  0  0  0  0  0  0  0  0  0
    1.4289    0.0000    0.0000 C   0  0  0  0  0  0  0  0  0  0  0  0
  1  2  1  0  0  0  0
  2  3  2  0  0  0  0
  3  4  1  0  0  0  0
  4  5  1  0  0  0  0
  4  6  2  0  0  0  0
  6  7  1  0  0  0  0
  7  8  1  0  0  0  0
  7  9  2  0  0  0  0
  2  9  1  0  0  0  0
  6 10  1  0  0  0  0
 10 11  2  0  0  0  0
 10 12  2  0  0  0  0
 10 13  1  0  0  0  0
 13 14  1  0  0  0  0
 14 15  1  0  0  0  0
 15 16  2  0  0  0  0
 15 17  1  0  0  0  0
 17 18  1  0  0  0  0
 18 19  2  0  0  0  0
 19 20  1  0  0  0  0
 20 21  1  0  0  0  0
 20 22  2  0  0  0  0
 22 23  1  0  0  0  0
 23 24  2  0  0  0  0
 18 24  1  0  0  0  0
 23 25  1  0  0  0  0
 25 26  1  0  0  0  0
 25 27  2  0  0  0  0
 13 28  1  0  0  0  0
 28 29  1  0  0  0  0
 29 30  1  0  0  0  0
 30 31  1  0  0  0  0
 31 32  1  0  0  0  0
 32 33  1  0  0  0  0
 28 33  1  0  0  0  0
M  END
> <ID>
CPD_3785

$$$$
CPD_3790
  Mrv1822 09091914012D          

 37 41  0  0  0  0            999 V2000
   -0.9954   -5.6198    0.0000 C   0  0  0  0  0  0  0  0  0  0  0  0
   -0.2107   -5.3649    0.0000 C   0  0  0  0  0  0  0  0  0  0  0  0
    0.4024   -5.9169    0.0000 C   0  0  0  0  0  0  0  0  0  0  0  0
   -0.0392   -4.5579    0.0000 N   0  0  0  0  0  0  0  0  0  0  0  0
   -0.5912   -3.9448    0.0000 N   0  0  0  0  0  0  0  0  0  0  0  0
   -0.1787   -3.2304    0.0000 C   0  0  0  0  0  0  0  0  0  0  0  0
    0.6282   -3.4019    0.0000 C   0  0  0  0  0  0  0  0  0  0  0  0
    1.2413   -2.8499    0.0000 Cl  0  0  0  0  0  0  0  0  0  0  0  0
    0.7145   -4.2224    0.0000 C   0  0  0  0  0  0  0  0  0  0  0  0
    1.4289   -4.6349    0.0000 C   0  0  0  0  0  0  0  0  0  0  0  0
    2.1434   -4.2224    0.0000 C   0  0  0  0  0  0  0  0  0  0  0  0
    2.1434   -3.3974    0.0000 O   0  0  0  0  0  0  0  0  0  0  0  0
    2.8579   -4.6349    0.0000 O   0  0  0  0  0  0  0  0  0  0  0  0
    3.5724   -4.2224    0.0000 C   0  0  0  0  0  0  0  0  0  0  0  0
    3.9079   -4.9761    0.0000 C   0  0  0  0  0  0  0  0  0  0  0  0
    3.4230   -5.6435    0.0000 C   0  0  0  0  0  0  0  0  0  0  0  0
    2.6025   -5.5573    0.0000 O   0  0  0  0  0  0  0  0  0  0  0  0
    3.7585   -6.3972    0.0000 C   0  0  0  0  0  0  0  0  0  0  0  0
    4.5790   -6.4834    0.0000 C   0  0  0  0  0  0  0  0  0  0  0  0
    4.9146   -7.2371    0.0000 C   0  0  0  0  0  0  0  0  0  0  0  0
    4.4297   -7.9045    0.0000 C   0  0  0  0  0  0  0  0  0  0  0  0
    4.7652   -8.6582    0.0000 O   0  0  0  0  0  0  0  0  0  0  0  0
    4.2803   -9.3256    0.0000 C   0  0  0  0  0  0  0  0  0  0  0  0
    3.4598   -9.2394    0.0000 C   0  0  0  0  0  0  0  0  0  0  0  0
    3.1243   -8.4857    0.0000 O   0  0  0  0  0  0  0  0  0  0  0  0
    3.6092   -7.8183    0.0000 C   0  0  0  0  0  0  0  0  0  0  0  0
    3.2736   -7.0646    0.0000 C   0  0  0  0  0  0  0  0  0  0  0  0
    3.0874   -3.5549    0.0000 C   0  0  0  0  0  0  0  0  0  0  0  0
    2.4200   -3.0700    0.0000 O   0  0  0  0  0  0  0  0  0  0  0  0
    3.5724   -2.8875    0.0000 N   0  0  0  0  0  0  0  0  0  0  0  0
    4.3570   -3.1424    0.0000 C   0  0  0  0  0  0  0  0  0  0  0  0
    4.3570   -3.9674    0.0000 C   0  0  0  0  0  0  0  0  0  0  0  0
    5.0714   -4.3799    0.0000 C   0  0  0  0  0  0  0  0  0  0  0  0
    5.7859   -3.9674    0.0000 C   0  0  0  0  0  0  0  0  0  0  0  0
    5.7859   -3.1424    0.0000 C   0  0  0  0  0  0  0  0  0  0  0  0
    5.0714   -2.7299    0.0000 C   0  0  0  0  0  0  0  0  0  0  0  0
    5.0714   -1.9049    0.0000 C   0  0  0  0  0  0  0  0  0  0  0  0
  1  2  1  0  0  0  0
  2  3  1  0  0  0  0
  2  4  1  0  0  0  0
  4  5  1  0  0  0  0
  5  6  2  0  0  0  0
  6  7  1  0  0  0  0
  7  8  1  0  0  0  0
  7  9  2  0  0  0  0
  4  9  1  0  0  0  0
  9 10  1  0  0  0  0
 10 11  1  0  0  0  0
 11 12  2  0  0  0  0
 11 13  1  0  0  0  0
 13 14  1  0  0  0  0
 14 15  1  0  0  0  0
 15 16  1  0  0  0  0
 16 17  2  0  0  0  0
 16 18  1  0  0  0  0
 18 19  2  0  0  0  0
 19 20  1  0  0  0  0
 20 21  2  0  0  0  0
 21 22  1  0  0  0  0
 22 23  1  0  0  0  0
 23 24  1  0  0  0  0
 24 25  1  0  0  0  0
 25 26  1  0  0  0  0
 21 26  1  0  0  0  0
 26 27  2  0  0  0  0
 18 27  1  0  0  0  0
 14 28  1  0  0  0  0
 28 29  2  0  0  0  0
 28 30  1  0  0  0  0
 30 31  1  0  0  0  0
 31 32  2  0  0  0  0
 14 32  1  0  0  0  0
 32 33  1  0  0  0  0
 33 34  2  0  0  0  0
 34 35  1  0  0  0  0
 35 36  2  0  0  0  0
 31 36  1  0  0  0  0
 36 37  1  0  0  0  0
M  END
> <ID>
CPD_3790

$$$$
CPD_3795
  Mrv1822 09091914012D          

 32 33  0  0  0  0            999 V2000
   -4.5989    0.0446    0.0000 C   0  0  0  0  0  0  0  0  0  0  0  0
   -5.2120   -0.5075    0.0000 C   0  0  0  0  0  0  0  0  0  0  0  0
   -5.9966   -0.2525    0.0000 C   0  0  0  0  0  0  0  0  0  0  0  0
   -5.0405   -1.3144    0.0000 N   0  0  0  0  0  0  0  0  0  0  0  0
   -5.5925   -1.9275    0.0000 N   0  0  0  0  0  0  0  0  0  0  0  0
   -5.1800   -2.6420    0.0000 C   0  0  0  0  0  0  0  0  0  0  0  0
   -4.3731   -2.4705    0.0000 C   0  0  0  0  0  0  0  0  0  0  0  0
   -3.7600   -3.0225    0.0000 Cl  0  0  0  0  0  0  0  0  0  0  0  0
   -4.2868   -1.6500    0.0000 C   0  0  0  0  0  0  0  0  0  0  0  0
   -3.5724   -1.2375    0.0000 C   0  0  0  0  0  0  0  0  0  0  0  0
   -2.8579   -1.6500    0.0000 C   0  0  0  0  0  0  0  0  0  0  0  0
   -2.8579   -2.4750    0.0000 O   0  0  0  0  0  0  0  0  0  0  0  0
   -2.1434   -1.2375    0.0000 O   0  0  0  0  0  0  0  0  0  0  0  0
   -1.4289   -1.6500    0.0000 C   0  0  0  0  0  0  0  0  0  0  0  0
   -0.7145   -1.2375    0.0000 C   0  0  0  0  0  0  0  0  0  0  0  0
    0.0000   -1.6500    0.0000 N   0  0  0  0  0  0  0  0  0  0  0  0
    0.7145   -1.2375    0.0000 C   0  0  0  0  0  0  0  0  0  0  0  0
    0.7145   -0.4125    0.0000 C   0  0  0  0  0  0  0  0  0  0  0  0
    0.0000   -0.0000    0.0000 C   0  0  0  0  0  0  0  0  0  0  0  0
    0.0000    0.8250    0.0000 C   0  0  0  0  0  0  0  0  0  0  0  0
   -0.7145    1.2375    0.0000 Br  0  0  0  0  0  0  0  0  0  0  0  0
    0.7145    1.2375    0.0000 C   0  0  0  0  0  0  0  0  0  0  0  0
    1.4289    0.8250    0.0000 C   0  0  0  0  0  0  0  0  0  0  0  0
    1.4289   -0.0000    0.0000 C   0  0  0  0  0  0  0  0  0  0  0  0
    2.1434   -0.4125    0.0000 O   0  0  0  0  0  0  0  0  0  0  0  0
    0.0000   -2.4750    0.0000 C   0  0  0  0  0  0  0  0  0  0  0  0
   -0.7145   -2.8875    0.0000 O   0  0  0  0  0  0  0  0  0  0  0  0
    0.7145   -2.8875    0.0000 O   0  0  0  0  0  0  0  0  0  0  0  0
    1.4289   -2.4750    0.0000 C   0  0  0  0  0  0  0  0  0  0  0  0
    1.8414   -3.1895    0.0000 C   0  0  0  0  0  0  0  0  0  0  0  0
    1.0164   -1.7605    0.0000 C   0  0  0  0  0  0  0  0  0  0  0  0
    2.1434   -2.0625    0.0000 C   0  0  0  0  0  0  0  0  0  0  0  0
  1  2  1  0  0  0  0
  2  3  1  0  0  0  0
  2  4  1  0  0  0  0
  4  5  1  0  0  0  0
  5  6  2  0  0  0  0
  6  7  1  0  0  0  0
  7  8  1  0  0  0  0
  7  9  2  0  0  0  0
  4  9  1  0  0  0  0
  9 10  1  0  0  0  0
 10 11  1  0  0  0  0
 11 12  2  0  0  0  0
 11 13  1  0  0  0  0
 13 14  1  0  0  0  0
 14 15  1  0  0  0  0
 15 16  1  0  0  0  0
 16 17  1  0  0  0  0
 17 18  1  0  0  0  0
 18 19  2  0  0  0  0
 19 20  1  0  0  0  0
 20 21  1  0  0  0  0
 20 22  2  0  0  0  0
 22 23  1  0  0  0  0
 23 24  2  0  0  0  0
 18 24  1  0  0  0  0
 24 25  1  0  0  0  0
 16 26  1  0  0  0  0
 26 27  2  0  0  0  0
 26 28  1  0  0  0  0
 28 29  1  0  0  0  0
 29 30  1  0  0  0  0
 29 31  1  0  0  0  0
 29 32  1  0  0  0  0
M  END
> <ID>
CPD_3795

$$$$
CPD_3800
  Mrv1822 09091914012D          

 34 38  0  0  0  0            999 V2000
   -1.7832   -0.7605    0.0000 C   0  0  0  0  0  0  0  0  0  0  0  0
   -1.6117    0.0464    0.0000 C   0  0  0  0  0  0  0  0  0  0  0  0
   -0.8580    0.3820    0.0000 C   0  0  0  0  0  0  0  0  0  0  0  0
   -0.9442    1.2025    0.0000 C   0  0  0  0  0  0  0  0  0  0  0  0
   -1.7512    1.3740    0.0000 C   0  0  0  0  0  0  0  0  0  0  0  0
   -2.1637    0.6595    0.0000 N   0  0  0  0  0  0  0  0  0  0  0  0
   -2.0061    2.1586    0.0000 C   0  0  0  0  0  0  0  0  0  0  0  0
   -1.4541    2.7717    0.0000 C   0  0  0  0  0  0  0  0  0  0  0  0
   -0.6471    2.6002    0.0000 C   0  0  0  0  0  0  0  0  0  0  0  0
   -0.3922    1.8156    0.0000 C   0  0  0  0  0  0  0  0  0  0  0  0
   -0.1435   -0.0305    0.0000 C   0  0  0  0  0  0  0  0  0  0  0  0
    0.1921    0.7232    0.0000 O   0  0  0  0  0  0  0  0  0  0  0  0
    1.0125    0.8094    0.0000 C   0  0  0  0  0  0  0  0  0  0  0  0
    1.6800    0.3245    0.0000 O   0  0  0  0  0  0  0  0  0  0  0  0
    1.3481    1.5631    0.0000 C   0  0  0  0  0  0  0  0  0  0  0  0
    2.1686    1.6493    0.0000 N   0  0  0  0  0  0  0  0  0  0  0  0
    2.5041    2.4030    0.0000 C   0  0  0  0  0  0  0  0  0  0  0  0
    3.3246    2.4892    0.0000 C   0  0  0  0  0  0  0  0  0  0  0  0
    3.8095    1.8218    0.0000 C   0  0  0  0  0  0  0  0  0  0  0  0
    3.4740    1.0681    0.0000 C   0  0  0  0  0  0  0  0  0  0  0  0
    2.6535    0.9819    0.0000 C   0  0  0  0  0  0  0  0  0  0  0  0
    4.6300    1.9080    0.0000 C   0  0  0  0  0  0  0  0  0  0  0  0
    4.9656    2.6617    0.0000 O   0  0  0  0  0  0  0  0  0  0  0  0
    5.1149    1.2406    0.0000 O   0  0  0  0  0  0  0  0  0  0  0  0
   -0.6284   -0.6979    0.0000 C   0  0  0  0  0  0  0  0  0  0  0  0
   -1.4534   -0.6979    0.0000 O   0  0  0  0  0  0  0  0  0  0  0  0
   -0.1435   -1.3654    0.0000 N   0  0  0  0  0  0  0  0  0  0  0  0
    0.6411   -1.1104    0.0000 C   0  0  0  0  0  0  0  0  0  0  0  0
    0.6411   -0.2854    0.0000 C   0  0  0  0  0  0  0  0  0  0  0  0
    1.3556    0.1271    0.0000 C   0  0  0  0  0  0  0  0  0  0  0  0
    2.0701   -0.2854    0.0000 C   0  0  0  0  0  0  0  0  0  0  0  0
    2.7845    0.1271    0.0000 Cl  0  0  0  0  0  0  0  0  0  0  0  0
    2.0701   -1.1104    0.0000 C   0  0  0  0  0  0  0  0  0  0  0  0
    1.3556   -1.5229    0.0000 C   0  0  0  0  0  0  0  0  0  0  0  0
  1  2  1  0  0  0  0
  2  3  2  0  0  0  0
  3  4  1  0  0  0  0
  4  5  2  0  0  0  0
  5  6  1  0  0  0  0
  2  6  1  0  0  0  0
  5  7  1  0  0  0  0
  7  8  2  0  0  0  0
  8  9  1  0  0  0  0
  9 10  2  0  0  0  0
  4 10  1  0  0  0  0
  3 11  1  0  0  0  0
 11 12  1  0  0  0  0
 12 13  1  0  0  0  0
 13 14  2  0  0  0  0
 13 15  1  0  0  0  0
 15 16  1  0  0  0  0
 16 17  1  0  0  0  0
 17 18  1  0  0  0  0
 18 19  1  0  0  0  0
 19 20  1  0  0  0  0
 20 21  1  0  0  0  0
 16 21  1  0  0  0  0
 19 22  1  0  0  0  0
 22 23  1  0  0  0  0
 22 24  2  0  0  0  0
 11 25  1  0  0  0  0
 25 26  2  0  0  0  0
 25 27  1  0  0  0  0
 27 28  1  0  0  0  0
 28 29  2  0  0  0  0
 11 29  1  0  0  0  0
 29 30  1  0  0  0  0
 30 31  2  0  0  0  0
 31 32  1  0  0  0  0
 31 33  1  0  0  0  0
 33 34  2  0  0  0  0
 28 34  1  0  0  0  0
M  END
> <ID>
CPD_3800

$$$$
CPD_3805
  Mrv1822 09091914012D          

 24 25  0  0  0  0            999 V2000
    2.7004   -1.5395    0.0000 C   0  0  0  0  0  0  0  0  0  0  0  0
    2.9705   -2.3191    0.0000 C   0  0  0  0  0  0  0  0  0  0  0  0
    2.4304   -2.9427    0.0000 O   0  0  0  0  0  0  0  0  0  0  0  0
    1.6203   -2.7868    0.0000 C   0  0  0  0  0  0  0  0  0  0  0  0
    1.3502   -2.0073    0.0000 O   0  0  0  0  0  0  0  0  0  0  0  0
    1.0802   -3.4105    0.0000 C   0  0  0  0  0  0  0  0  0  0  0  0
    0.2700   -3.2546    0.0000 N   0  0  0  0  0  0  0  0  0  0  0  0
   -0.2700   -3.8782    0.0000 C   0  0  0  0  0  0  0  0  0  0  0  0
    0.0000   -4.6577    0.0000 C   0  0  0  0  0  0  0  0  0  0  0  0
    0.8101   -4.8137    0.0000 C   0  0  0  0  0  0  0  0  0  0  0  0
    1.0802   -5.5932    0.0000 C   0  0  0  0  0  0  0  0  0  0  0  0
    0.5401   -6.2168    0.0000 C   0  0  0  0  0  0  0  0  0  0  0  0
   -0.2700   -6.0609    0.0000 C   0  0  0  0  0  0  0  0  0  0  0  0
   -0.5401   -5.2814    0.0000 C   0  0  0  0  0  0  0  0  0  0  0  0
   -1.3502   -5.1255    0.0000 C   0  0  0  0  0  0  0  0  0  0  0  0
   -1.6203   -4.3459    0.0000 C   0  0  0  0  0  0  0  0  0  0  0  0
   -1.0802   -3.7223    0.0000 C   0  0  0  0  0  0  0  0  0  0  0  0
    0.0000   -2.4750    0.0000 S   0  0  0  0  0  0  0  0  0  0  0  0
    0.7796   -2.2050    0.0000 C   0  0  0  0  0  0  0  0  0  0  0  0
   -0.7796   -2.7450    0.0000 O   0  0  0  0  0  0  0  0  0  0  0  0
   -0.2700   -1.6954    0.0000 O   0  0  0  0  0  0  0  0  0  0  0  0
    3.7806   -2.4750    0.0000 C   0  0  0  0  0  0  0  0  0  0  0  0
    4.3207   -1.8514    0.0000 N   0  0  0  0  0  0  0  0  0  0  0  0
    4.0507   -3.2546    0.0000 O   0  0  0  0  0  0  0  0  0  0  0  0
  1  2  1  0  0  0  0
  2  3  1  0  0  0  0
  3  4  1  0  0  0  0
  4  5  2  0  0  0  0
  4  6  1  0  0  0  0
  6  7  1  0  0  0  0
  7  8  1  0  0  0  0
  8  9  2  0  0  0  0
  9 10  1  0  0  0  0
 10 11  2  0  0  0  0
 11 12  1  0  0  0  0
 12 13  2  0  0  0  0
 13 14  1  0  0  0  0
  9 14  1  0  0  0  0
 14 15  2  0  0  0  0
 15 16  1  0  0  0  0
 16 17  2  0  0  0  0
  8 17  1  0  0  0  0
  7 18  1  0  0  0  0
 18 19  1  0  0  0  0
 18 20  2  0  0  0  0
 18 21  2  0  0  0  0
  2 22  1  0  0  0  0
 22 23  1  0  0  0  0
 22 24  2  0  0  0  0
M  END
> <ID>
CPD_3805

$$$$
CPD_3810
  Mrv1822 09091914012D          

 17 17  0  0  0  0            999 V2000
   -1.4289    4.9500    0.0000 C   0  0  0  0  0  0  0  0  0  0  0  0
   -1.4289    4.1250    0.0000 N   0  0  0  0  0  0  0  0  0  0  0  0
   -0.7145    3.7125    0.0000 C   0  0  0  0  0  0  0  0  0  0  0  0
   -1.1270    2.9980    0.0000 C   0  0  0  0  0  0  0  0  0  0  0  0
   -0.3020    4.4270    0.0000 C   0  0  0  0  0  0  0  0  0  0  0  0
    0.0000    3.3000    0.0000 C   0  0  0  0  0  0  0  0  0  0  0  0
    0.7145    3.7125    0.0000 O   0  0  0  0  0  0  0  0  0  0  0  0
    0.0000    2.4750    0.0000 O   0  0  0  0  0  0  0  0  0  0  0  0
    0.7145    2.0625    0.0000 C   0  0  0  0  0  0  0  0  0  0  0  0
    0.7145    1.2375    0.0000 C   0  0  0  0  0  0  0  0  0  0  0  0
    1.4289    0.8250    0.0000 C   0  0  0  0  0  0  0  0  0  0  0  0
    1.4289   -0.0000    0.0000 C   0  0  0  0  0  0  0  0  0  0  0  0
    0.7145   -0.4125    0.0000 C   0  0  0  0  0  0  0  0  0  0  0  0
    0.7145   -1.2375    0.0000 Br  0  0  0  0  0  0  0  0  0  0  0  0
    0.0000    0.0000    0.0000 C   0  0  0  0  0  0  0  0  0  0  0  0
   -0.7145   -0.4125    0.0000 O   0  0  0  0  0  0  0  0  0  0  0  0
    0.0000    0.8250    0.0000 C   0  0  0  0  0  0  0  0  0  0  0  0
  1  2  1  0  0  0  0
  2  3  1  0  0  0  0
  3  4  1  0  0  0  0
  3  5  1  0  0  0  0
  3  6  1  0  0  0  0
  6  7  2  0  0  0  0
  6  8  1  0  0  0  0
  8  9  1  0  0  0  0
  9 10  1  0  0  0  0
 10 11  2  0  0  0  0
 11 12  1  0  0  0  0
 12 13  2  0  0  0  0
 13 14  1  0  0  0  0
 13 15  1  0  0  0  0
 15 16  1  0  0  0  0
 15 17  2  0  0  0  0
 10 17  1  0  0  0  0
M  END
> <ID>
CPD_3810

$$$$
CPD_3815
  Mrv1822 09091914012D          

 26 29  0  0  0  0            999 V2000
   -0.5889    5.9172    0.0000 C   0  0  0  0  0  0  0  0  0  0  0  0
   -0.3340    5.1326    0.0000 C   0  0  0  0  0  0  0  0  0  0  0  0
    0.4730    4.9610    0.0000 C   0  0  0  0  0  0  0  0  0  0  0  0
   -0.8860    4.5195    0.0000 N   0  0  0  0  0  0  0  0  0  0  0  0
   -1.7065    4.6057    0.0000 C   0  0  0  0  0  0  0  0  0  0  0  0
   -2.0420    3.8520    0.0000 C   0  0  0  0  0  0  0  0  0  0  0  0
   -1.4289    3.3000    0.0000 C   0  0  0  0  0  0  0  0  0  0  0  0
   -0.7145    3.7125    0.0000 C   0  0  0  0  0  0  0  0  0  0  0  0
    0.0000    3.3000    0.0000 C   0  0  0  0  0  0  0  0  0  0  0  0
    0.0000    2.4750    0.0000 C   0  0  0  0  0  0  0  0  0  0  0  0
   -0.7145    2.0625    0.0000 C   0  0  0  0  0  0  0  0  0  0  0  0
   -1.4289    2.4750    0.0000 C   0  0  0  0  0  0  0  0  0  0  0  0
   -0.7145    1.2375    0.0000 C   0  0  0  0  0  0  0  0  0  0  0  0
   -1.4289    0.8250    0.0000 O   0  0  0  0  0  0  0  0  0  0  0  0
    0.0000    0.8250    0.0000 O   0  0  0  0  0  0  0  0  0  0  0  0
    0.0000   -0.0000    0.0000 C   0  0  0  0  0  0  0  0  0  0  0  0
   -0.7145   -0.4125    0.0000 N   0  0  0  0  0  0  0  0  0  0  0  0
   -0.7145   -1.2375    0.0000 C   0  0  0  0  0  0  0  0  0  0  0  0
   -1.4289   -1.6500    0.0000 O   0  0  0  0  0  0  0  0  0  0  0  0
    0.0000   -1.6500    0.0000 C   0  0  0  0  0  0  0  0  0  0  0  0
    0.7145   -1.2375    0.0000 C   0  0  0  0  0  0  0  0  0  0  0  0
    0.7145   -0.4125    0.0000 C   0  0  0  0  0  0  0  0  0  0  0  0
    1.4289   -0.0000    0.0000 C   0  0  0  0  0  0  0  0  0  0  0  0
    2.1434   -0.4125    0.0000 C   0  0  0  0  0  0  0  0  0  0  0  0
    2.1434   -1.2375    0.0000 C   0  0  0  0  0  0  0  0  0  0  0  0
    1.4289   -1.6500    0.0000 C   0  0  0  0  0  0  0  0  0  0  0  0
  1  2  1  0  0  0  0
  2  3  1  0  0  0  0
  2  4  1  0  0  0  0
  4  5  1  0  0  0  0
  5  6  2  0  0  0  0
  6  7  1  0  0  0  0
  7  8  2  0  0  0  0
  4  8  1  0  0  0  0
  8  9  1  0  0  0  0
  9 10  2  0  0  0  0
 10 11  1  0  0  0  0
 11 12  2  0  0  0  0
  7 12  1  0  0  0  0
 11 13  1  0  0  0  0
 13 14  2  0  0  0  0
 13 15  1  0  0  0  0
 15 16  1  0  0  0  0
 16 17  2  0  0  0  0
 17 18  1  0  0  0  0
 18 19  1  0  0  0  0
 18 20  2  0  0  0  0
 20 21  1  0  0  0  0
 21 22  2  0  0  0  0
 16 22  1  0  0  0  0
 22 23  1  0  0  0  0
 23 24  1  0  0  0  0
 24 25  1  0  0  0  0
 25 26  1  0  0  0  0
 21 26  1  0  0  0  0
M  END
> <ID>
CPD_3815

$$$$
CPD_3820
  Mrv1822 09091914012D          

 26 28  0  0  0  0            999 V2000
   -2.8579   -2.4750    0.0000 C   0  0  0  0  0  0  0  0  0  0  0  0
   -2.1434   -2.8875    0.0000 O   0  0  0  0  0  0  0  0  0  0  0  0
   -1.4289   -2.4750    0.0000 C   0  0  0  0  0  0  0  0  0  0  0  0
   -1.4289   -1.6500    0.0000 C   0  0  0  0  0  0  0  0  0  0  0  0
   -2.1434   -1.2375    0.0000 O   0  0  0  0  0  0  0  0  0  0  0  0
   -0.7145   -1.2375    0.0000 C   0  0  0  0  0  0  0  0  0  0  0  0
    0.0000   -1.6500    0.0000 C   0  0  0  0  0  0  0  0  0  0  0  0
    0.0000   -2.4750    0.0000 C   0  0  0  0  0  0  0  0  0  0  0  0
    0.7145   -2.8875    0.0000 C   0  0  0  0  0  0  0  0  0  0  0  0
    1.4289   -2.4750    0.0000 C   0  0  0  0  0  0  0  0  0  0  0  0
    2.1434   -2.8875    0.0000 O   0  0  0  0  0  0  0  0  0  0  0  0
    2.8579   -2.4750    0.0000 C   0  0  0  0  0  0  0  0  0  0  0  0
    2.8579   -1.6500    0.0000 O   0  0  0  0  0  0  0  0  0  0  0  0
    3.5724   -2.8875    0.0000 C   0  0  0  0  0  0  0  0  0  0  0  0
    4.2868   -2.4750    0.0000 C   0  0  0  0  0  0  0  0  0  0  0  0
    5.0013   -2.8875    0.0000 C   0  0  0  0  0  0  0  0  0  0  0  0
    5.0013   -3.7125    0.0000 C   0  0  0  0  0  0  0  0  0  0  0  0
    4.2868   -4.1250    0.0000 C   0  0  0  0  0  0  0  0  0  0  0  0
    3.5724   -3.7125    0.0000 C   0  0  0  0  0  0  0  0  0  0  0  0
    5.7859   -3.9674    0.0000 N   0  0  0  0  0  0  0  0  0  0  0  0
    6.2708   -3.3000    0.0000 C   0  0  0  0  0  0  0  0  0  0  0  0
    5.7859   -2.6326    0.0000 C   0  0  0  0  0  0  0  0  0  0  0  0
    6.0409   -4.7521    0.0000 C   0  0  0  0  0  0  0  0  0  0  0  0
    6.8478   -4.9236    0.0000 C   0  0  0  0  0  0  0  0  0  0  0  0
    5.4888   -5.3652    0.0000 C   0  0  0  0  0  0  0  0  0  0  0  0
   -0.7145   -2.8875    0.0000 C   0  0  0  0  0  0  0  0  0  0  0  0
  1  2  1  0  0  0  0
  2  3  1  0  0  0  0
  3  4  2  0  0  0  0
  4  5  1  0  0  0  0
  4  6  1  0  0  0  0
  6  7  2  0  0  0  0
  7  8  1  0  0  0  0
  8  9  1  0  0  0  0
  9 10  1  0  0  0  0
 10 11  1  0  0  0  0
 11 12  1  0  0  0  0
 12 13  2  0  0  0  0
 12 14  1  0  0  0  0
 14 15  2  0  0  0  0
 15 16  1  0  0  0  0
 16 17  2  0  0  0  0
 17 18  1  0  0  0  0
 18 19  2  0  0  0  0
 14 19  1  0  0  0  0
 17 20  1  0  0  0  0
 20 21  1  0  0  0  0
 21 22  2  0  0  0  0
 16 22  1  0  0  0  0
 20 23  1  0  0  0  0
 23 24  1  0  0  0  0
 23 25  1  0  0  0  0
  8 26  2  0  0  0  0
  3 26  1  0  0  0  0
M  END
> <ID>
CPD_3820

$$$$
CPD_3825
  Mrv1822 09091914012D          

 36 40  0  0  0  0            999 V2000
   -5.0013    4.5375    0.0000 C   0  0  0  0  0  0  0  0  0  0  0  0
   -5.0013    3.7125    0.0000 C   0  0  0  0  0  0  0  0  0  0  0  0
   -4.2868    3.3000    0.0000 C   0  0  0  0  0  0  0  0  0  0  0  0
   -4.2868    2.4750    0.0000 C   0  0  0  0  0  0  0  0  0  0  0  0
   -5.0013    2.0625    0.0000 N   0  0  0  0  0  0  0  0  0  0  0  0
   -5.7158    2.4750    0.0000 C   0  0  0  0  0  0  0  0  0  0  0  0
   -5.7158    3.3000    0.0000 C   0  0  0  0  0  0  0  0  0  0  0  0
   -5.0013    1.2375    0.0000 C   0  0  0  0  0  0  0  0  0  0  0  0
   -5.7158    0.8250    0.0000 N   0  0  0  0  0  0  0  0  0  0  0  0
   -5.7158    0.0000    0.0000 C   0  0  0  0  0  0  0  0  0  0  0  0
   -5.0013   -0.4125    0.0000 C   0  0  0  0  0  0  0  0  0  0  0  0
   -4.2868    0.0000    0.0000 N   0  0  0  0  0  0  0  0  0  0  0  0
   -4.2868    0.8250    0.0000 C   0  0  0  0  0  0  0  0  0  0  0  0
   -3.5724    1.2375    0.0000 O   0  0  0  0  0  0  0  0  0  0  0  0
   -2.8579    0.8250    0.0000 C   0  0  0  0  0  0  0  0  0  0  0  0
   -2.1434    1.2375    0.0000 C   0  0  0  0  0  0  0  0  0  0  0  0
   -1.4289    0.8250    0.0000 C   0  0  0  0  0  0  0  0  0  0  0  0
   -1.4289    0.0000    0.0000 C   0  0  0  0  0  0  0  0  0  0  0  0
   -2.1434   -0.4125    0.0000 C   0  0  0  0  0  0  0  0  0  0  0  0
   -2.8579    0.0000    0.0000 C   0  0  0  0  0  0  0  0  0  0  0  0
   -0.7145   -0.4125    0.0000 C   0  0  0  0  0  0  0  0  0  0  0  0
   -0.7145   -1.2375    0.0000 O   0  0  0  0  0  0  0  0  0  0  0  0
    0.0000    0.0000    0.0000 O   0  0  0  0  0  0  0  0  0  0  0  0
    0.7145   -0.4125    0.0000 C   0  0  0  0  0  0  0  0  0  0  0  0
    1.4289    0.0000    0.0000 N   0  0  0  0  0  0  0  0  0  0  0  0
    2.1434   -0.4125    0.0000 C   0  0  0  0  0  0  0  0  0  0  0  0
    2.8579    0.0000    0.0000 N   0  0  0  0  0  0  0  0  0  0  0  0
    3.5724   -0.4125    0.0000 C   0  0  0  0  0  0  0  0  0  0  0  0
    3.5724   -1.2375    0.0000 C   0  0  0  0  0  0  0  0  0  0  0  0
    4.2868   -1.6500    0.0000 Cl  0  0  0  0  0  0  0  0  0  0  0  0
    2.8579   -1.6500    0.0000 C   0  0  0  0  0  0  0  0  0  0  0  0
    2.1434   -1.2375    0.0000 C   0  0  0  0  0  0  0  0  0  0  0  0
    1.4289   -1.6500    0.0000 C   0  0  0  0  0  0  0  0  0  0  0  0
    0.7145   -1.2375    0.0000 C   0  0  0  0  0  0  0  0  0  0  0  0
    0.0000   -1.6500    0.0000 C   0  0  0  0  0  0  0  0  0  0  0  0
   -0.7145   -2.0625    0.0000 N   0  0  0  0  0  0  0  0  0  0  0  0
  1  2  1  0  0  0  0
  2  3  1  0  0  0  0
  3  4  1  0  0  0  0
  4  5  1  0  0  0  0
  5  6  1  0  0  0  0
  6  7  1  0  0  0  0
  2  7  1  0  0  0  0
  5  8  1  0  0  0  0
  8  9  2  0  0  0  0
  9 10  1  0  0  0  0
 10 11  2  0  0  0  0
 11 12  1  0  0  0  0
 12 13  2  0  0  0  0
  8 13  1  0  0  0  0
 13 14  1  0  0  0  0
 14 15  1  0  0  0  0
 15 16  2  0  0  0  0
 16 17  1  0  0  0  0
 17 18  2  0  0  0  0
 18 19  1  0  0  0  0
 19 20  2  0  0  0  0
 15 20  1  0  0  0  0
 18 21  1  0  0  0  0
 21 22  2  0  0  0  0
 21 23  1  0  0  0  0
 23 24  1  0  0  0  0
 24 25  2  0  0  0  0
 25 26  1  0  0  0  0
 26 27  2  0  0  0  0
 27 28  1  0  0  0  0
 28 29  2  0  0  0  0
 29 30  1  0  0  0  0
 29 31  1  0  0  0  0
 31 32  2  0  0  0  0
 26 32  1  0  0  0  0
 32 33  1  0  0  0  0
 33 34  2  0  0  0  0
 24 34  1  0  0  0  0
 34 35  1  0  0  0  0
 35 36  3  0  0  0  0
M  END
> <ID>
CPD_3825

$$$$
CPD_3830
  Mrv1822 09091914012D          

 31 34  0  0  0  0            999 V2000
    2.8579   -1.6500    0.0000 C   0  0  0  0  0  0  0  0  0  0  0  0
    2.8579   -2.4750    0.0000 C   0  0  0  0  0  0  0  0  0  0  0  0
    3.5724   -2.8875    0.0000 C   0  0  0  0  0  0  0  0  0  0  0  0
    3.5724   -3.7125    0.0000 C   0  0  0  0  0  0  0  0  0  0  0  0
    4.2868   -4.1250    0.0000 C   0  0  0  0  0  0  0  0  0  0  0  0
    2.8579   -4.1250    0.0000 C   0  0  0  0  0  0  0  0  0  0  0  0
    2.1434   -3.7125    0.0000 C   0  0  0  0  0  0  0  0  0  0  0  0
    2.1434   -2.8875    0.0000 C   0  0  0  0  0  0  0  0  0  0  0  0
    2.8579   -4.9500    0.0000 C   0  0  0  0  0  0  0  0  0  0  0  0
    3.5253   -5.4349    0.0000 N   0  0  0  0  0  0  0  0  0  0  0  0
    3.2704   -6.2195    0.0000 O   0  0  0  0  0  0  0  0  0  0  0  0
    2.4454   -6.2195    0.0000 C   0  0  0  0  0  0  0  0  0  0  0  0
    1.9605   -6.8870    0.0000 O   0  0  0  0  0  0  0  0  0  0  0  0
    2.2960   -7.6407    0.0000 C   0  0  0  0  0  0  0  0  0  0  0  0
    3.1165   -7.7269    0.0000 O   0  0  0  0  0  0  0  0  0  0  0  0
    1.8111   -8.3081    0.0000 C   0  0  0  0  0  0  0  0  0  0  0  0
    2.1467   -9.0618    0.0000 C   0  0  0  0  0  0  0  0  0  0  0  0
    2.9671   -9.1480    0.0000 C   0  0  0  0  0  0  0  0  0  0  0  0
    3.3027   -9.9017    0.0000 C   0  0  0  0  0  0  0  0  0  0  0  0
    2.8178  -10.5691    0.0000 C   0  0  0  0  0  0  0  0  0  0  0  0
    1.9973  -10.4829    0.0000 C   0  0  0  0  0  0  0  0  0  0  0  0
    1.6617   -9.7292    0.0000 C   0  0  0  0  0  0  0  0  0  0  0  0
    1.5124  -11.1503    0.0000 C   0  0  0  0  0  0  0  0  0  0  0  0
    1.8479  -11.9040    0.0000 C   0  0  0  0  0  0  0  0  0  0  0  0
    1.3630  -12.5714    0.0000 C   0  0  0  0  0  0  0  0  0  0  0  0
    0.5425  -12.4852    0.0000 C   0  0  0  0  0  0  0  0  0  0  0  0
    0.2070  -11.7315    0.0000 C   0  0  0  0  0  0  0  0  0  0  0  0
    0.6919  -11.0641    0.0000 C   0  0  0  0  0  0  0  0  0  0  0  0
   -0.6135  -11.6453    0.0000 C   0  0  0  0  0  0  0  0  0  0  0  0
   -1.4340  -11.5591    0.0000 N   0  0  0  0  0  0  0  0  0  0  0  0
    2.1904   -5.4349    0.0000 C   0  0  0  0  0  0  0  0  0  0  0  0
  1  2  1  0  0  0  0
  2  3  2  0  0  0  0
  3  4  1  0  0  0  0
  4  5  1  0  0  0  0
  4  6  2  0  0  0  0
  6  7  1  0  0  0  0
  7  8  2  0  0  0  0
  2  8  1  0  0  0  0
  6  9  1  0  0  0  0
  9 10  2  0  0  0  0
 10 11  1  0  0  0  0
 11 12  1  0  0  0  0
 12 13  1  0  0  0  0
 13 14  1  0  0  0  0
 14 15  2  0  0  0  0
 14 16  1  0  0  0  0
 16 17  1  0  0  0  0
 17 18  2  0  0  0  0
 18 19  1  0  0  0  0
 19 20  2  0  0  0  0
 20 21  1  0  0  0  0
 21 22  2  0  0  0  0
 17 22  1  0  0  0  0
 21 23  1  0  0  0  0
 23 24  2  0  0  0  0
 24 25  1  0  0  0  0
 25 26  2  0  0  0  0
 26 27  1  0  0  0  0
 27 28  2  0  0  0  0
 23 28  1  0  0  0  0
 27 29  1  0  0  0  0
 29 30  3  0  0  0  0
 12 31  2  0  0  0  0
  9 31  1  0  0  0  0
M  END
> <ID>
CPD_3830

$$$$
CPD_3835
  Mrv1822 09091914012D          

 29 31  0  0  0  0            999 V2000
    2.7845    0.6979    0.0000 C   0  0  0  0  0  0  0  0  0  0  0  0
    2.0701    1.1104    0.0000 C   0  0  0  0  0  0  0  0  0  0  0  0
    1.3556    0.6979    0.0000 C   0  0  0  0  0  0  0  0  0  0  0  0
    0.6411    1.1104    0.0000 C   0  0  0  0  0  0  0  0  0  0  0  0
   -0.1435    0.8555    0.0000 N   0  0  0  0  0  0  0  0  0  0  0  0
   -0.6284    1.5229    0.0000 C   0  0  0  0  0  0  0  0  0  0  0  0
   -0.1435    2.1904    0.0000 C   0  0  0  0  0  0  0  0  0  0  0  0
    0.6411    1.9354    0.0000 N   0  0  0  0  0  0  0  0  0  0  0  0
    1.3556    2.3479    0.0000 C   0  0  0  0  0  0  0  0  0  0  0  0
    2.0701    1.9354    0.0000 C   0  0  0  0  0  0  0  0  0  0  0  0
    2.7845    2.3479    0.0000 Br  0  0  0  0  0  0  0  0  0  0  0  0
   -1.4534    1.5229    0.0000 C   0  0  0  0  0  0  0  0  0  0  0  0
   -1.8659    0.8085    0.0000 O   0  0  0  0  0  0  0  0  0  0  0  0
   -1.8659    2.2374    0.0000 O   0  0  0  0  0  0  0  0  0  0  0  0
   -2.6909    2.2374    0.0000 C   0  0  0  0  0  0  0  0  0  0  0  0
   -3.1034    2.9519    0.0000 C   0  0  0  0  0  0  0  0  0  0  0  0
   -3.9284    2.9519    0.0000 C   0  0  0  0  0  0  0  0  0  0  0  0
   -4.3409    3.6664    0.0000 N   0  0  0  0  0  0  0  0  0  0  0  0
   -3.9284    4.3808    0.0000 C   0  0  0  0  0  0  0  0  0  0  0  0
   -3.1034    4.3808    0.0000 C   0  0  0  0  0  0  0  0  0  0  0  0
   -2.6909    3.6664    0.0000 C   0  0  0  0  0  0  0  0  0  0  0  0
   -1.8659    3.6664    0.0000 F   0  0  0  0  0  0  0  0  0  0  0  0
   -5.1659    3.6664    0.0000 C   0  0  0  0  0  0  0  0  0  0  0  0
   -5.5784    2.9519    0.0000 O   0  0  0  0  0  0  0  0  0  0  0  0
   -5.5784    4.3808    0.0000 O   0  0  0  0  0  0  0  0  0  0  0  0
   -6.4034    4.3808    0.0000 C   0  0  0  0  0  0  0  0  0  0  0  0
   -7.2284    4.3808    0.0000 C   0  0  0  0  0  0  0  0  0  0  0  0
   -6.4034    5.2058    0.0000 C   0  0  0  0  0  0  0  0  0  0  0  0
   -6.4034    3.5558    0.0000 C   0  0  0  0  0  0  0  0  0  0  0  0
  1  2  1  0  0  0  0
  2  3  2  0  0  0  0
  3  4  1  0  0  0  0
  4  5  2  0  0  0  0
  5  6  1  0  0  0  0
  6  7  2  0  0  0  0
  7  8  1  0  0  0  0
  4  8  1  0  0  0  0
  8  9  1  0  0  0  0
  9 10  2  0  0  0  0
  2 10  1  0  0  0  0
 10 11  1  0  0  0  0
  6 12  1  0  0  0  0
 12 13  2  0  0  0  0
 12 14  1  0  0  0  0
 14 15  1  0  0  0  0
 15 16  1  0  0  0  0
 16 17  1  0  0  0  0
 17 18  1  0  0  0  0
 18 19  1  0  0  0  0
 19 20  1  0  0  0  0
 20 21  1  0  0  0  0
 16 21  1  0  0  0  0
 21 22  1  0  0  0  0
 18 23  1  0  0  0  0
 23 24  2  0  0  0  0
 23 25  1  0  0  0  0
 25 26  1  0  0  0  0
 26 27  1  0  0  0  0
 26 28  1  0  0  0  0
 26 29  1  0  0  0  0
M  END
> <ID>
CPD_3835

$$$$
CPD_3840
  Mrv1822 09091914012D          

 34 36  0  0  0  0            999 V2000
    0.6078   -1.2991    0.0000 C   0  0  0  0  0  0  0  0  0  0  0  0
    1.3222   -1.7116    0.0000 O   0  0  0  0  0  0  0  0  0  0  0  0
    2.0367   -1.2991    0.0000 C   0  0  0  0  0  0  0  0  0  0  0  0
    2.0367   -0.4741    0.0000 C   0  0  0  0  0  0  0  0  0  0  0  0
    2.7512   -0.0616    0.0000 C   0  0  0  0  0  0  0  0  0  0  0  0
    3.4656   -0.4741    0.0000 C   0  0  0  0  0  0  0  0  0  0  0  0
    3.4656   -1.2991    0.0000 C   0  0  0  0  0  0  0  0  0  0  0  0
    4.1801   -1.7116    0.0000 O   0  0  0  0  0  0  0  0  0  0  0  0
    4.1801   -2.5366    0.0000 C   0  0  0  0  0  0  0  0  0  0  0  0
    2.7512   -1.7116    0.0000 C   0  0  0  0  0  0  0  0  0  0  0  0
    2.7512   -2.5366    0.0000 C   0  0  0  0  0  0  0  0  0  0  0  0
    3.4186   -3.0215    0.0000 N   0  0  0  0  0  0  0  0  0  0  0  0
    3.1637   -3.8062    0.0000 O   0  0  0  0  0  0  0  0  0  0  0  0
    2.3387   -3.8062    0.0000 C   0  0  0  0  0  0  0  0  0  0  0  0
    1.8538   -4.4736    0.0000 O   0  0  0  0  0  0  0  0  0  0  0  0
    1.0333   -4.3874    0.0000 C   0  0  0  0  0  0  0  0  0  0  0  0
    0.6977   -3.6337    0.0000 O   0  0  0  0  0  0  0  0  0  0  0  0
    0.5484   -5.0548    0.0000 C   0  0  0  0  0  0  0  0  0  0  0  0
   -0.2721   -4.9686    0.0000 C   0  0  0  0  0  0  0  0  0  0  0  0
   -0.7571   -5.6360    0.0000 C   0  0  0  0  0  0  0  0  0  0  0  0
   -1.5775   -5.5498    0.0000 C   0  0  0  0  0  0  0  0  0  0  0  0
   -1.9131   -4.7961    0.0000 N   0  0  0  0  0  0  0  0  0  0  0  0
   -1.4282   -4.1286    0.0000 C   0  0  0  0  0  0  0  0  0  0  0  0
   -0.6077   -4.2149    0.0000 C   0  0  0  0  0  0  0  0  0  0  0  0
   -0.4929   -3.3979    0.0000 F   0  0  0  0  0  0  0  0  0  0  0  0
    0.1338   -3.8532    0.0000 F   0  0  0  0  0  0  0  0  0  0  0  0
   -2.7336   -4.7098    0.0000 C   0  0  0  0  0  0  0  0  0  0  0  0
   -3.2185   -5.3773    0.0000 O   0  0  0  0  0  0  0  0  0  0  0  0
   -3.0691   -3.9562    0.0000 O   0  0  0  0  0  0  0  0  0  0  0  0
   -3.8896   -3.8699    0.0000 C   0  0  0  0  0  0  0  0  0  0  0  0
   -4.7101   -3.7837    0.0000 C   0  0  0  0  0  0  0  0  0  0  0  0
   -3.8034   -3.0495    0.0000 C   0  0  0  0  0  0  0  0  0  0  0  0
   -3.9758   -4.6904    0.0000 C   0  0  0  0  0  0  0  0  0  0  0  0
    2.0837   -3.0215    0.0000 C   0  0  0  0  0  0  0  0  0  0  0  0
  1  2  1  0  0  0  0
  2  3  1  0  0  0  0
  3  4  2  0  0  0  0
  4  5  1  0  0  0  0
  5  6  2  0  0  0  0
  6  7  1  0  0  0  0
  7  8  1  0  0  0  0
  8  9  1  0  0  0  0
  7 10  2  0  0  0  0
  3 10  1  0  0  0  0
 10 11  1  0  0  0  0
 11 12  2  0  0  0  0
 12 13  1  0  0  0  0
 13 14  1  0  0  0  0
 14 15  1  0  0  0  0
 15 16  1  0  0  0  0
 16 17  2  0  0  0  0
 16 18  1  0  0  0  0
 18 19  1  0  0  0  0
 19 20  1  0  0  0  0
 20 21  1  0  0  0  0
 21 22  1  0  0  0  0
 22 23  1  0  0  0  0
 23 24  1  0  0  0  0
 19 24  1  0  0  0  0
 24 25  1  0  0  0  0
 24 26  1  0  0  0  0
 22 27  1  0  0  0  0
 27 28  2  0  0  0  0
 27 29  1  0  0  0  0
 29 30  1  0  0  0  0
 30 31  1  0  0  0  0
 30 32  1  0  0  0  0
 30 33  1  0  0  0  0
 14 34  2  0  0  0  0
 11 34  1  0  0  0  0
M  END
> <ID>
CPD_3840

$$$$
CPD_3845
  Mrv1822 09091914012D          

 37 39  0  0  0  0            999 V2000
   -4.2868    4.1250    0.0000 C   0  0  0  0  0  0  0  0  0  0  0  0
   -3.5724    3.7125    0.0000 C   0  0  0  0  0  0  0  0  0  0  0  0
   -3.9849    2.9980    0.0000 C   0  0  0  0  0  0  0  0  0  0  0  0
   -3.1599    4.4270    0.0000 C   0  0  0  0  0  0  0  0  0  0  0  0
   -2.8579    3.3000    0.0000 O   0  0  0  0  0  0  0  0  0  0  0  0
   -2.1434    3.7125    0.0000 C   0  0  0  0  0  0  0  0  0  0  0  0
   -2.1434    4.5375    0.0000 O   0  0  0  0  0  0  0  0  0  0  0  0
   -1.4289    3.3000    0.0000 N   0  0  0  0  0  0  0  0  0  0  0  0
   -0.7145    3.7125    0.0000 C   0  0  0  0  0  0  0  0  0  0  0  0
    0.0000    3.3000    0.0000 C   0  0  0  0  0  0  0  0  0  0  0  0
    0.0000    2.4750    0.0000 C   0  0  0  0  0  0  0  0  0  0  0  0
    0.7145    2.0625    0.0000 C   0  0  0  0  0  0  0  0  0  0  0  0
    0.7145    1.2375    0.0000 C   0  0  0  0  0  0  0  0  0  0  0  0
    0.0000    0.8250    0.0000 O   0  0  0  0  0  0  0  0  0  0  0  0
    1.4289    0.8250    0.0000 O   0  0  0  0  0  0  0  0  0  0  0  0
    1.4289    0.0000    0.0000 C   0  0  0  0  0  0  0  0  0  0  0  0
    2.1434   -0.4125    0.0000 C   0  0  0  0  0  0  0  0  0  0  0  0
    2.8579    0.0000    0.0000 O   0  0  0  0  0  0  0  0  0  0  0  0
    3.5724   -0.4125    0.0000 C   0  0  0  0  0  0  0  0  0  0  0  0
    4.2868   -0.0000    0.0000 N   0  0  0  0  0  0  0  0  0  0  0  0
    3.5724   -1.2375    0.0000 C   0  0  0  0  0  0  0  0  0  0  0  0
    2.8579   -1.6500    0.0000 C   0  0  0  0  0  0  0  0  0  0  0  0
    2.1434   -1.2375    0.0000 C   0  0  0  0  0  0  0  0  0  0  0  0
    1.4289   -1.6500    0.0000 C   0  0  0  0  0  0  0  0  0  0  0  0
    0.7145   -1.2375    0.0000 C   0  0  0  0  0  0  0  0  0  0  0  0
    0.7145   -0.4125    0.0000 C   0  0  0  0  0  0  0  0  0  0  0  0
    0.0000   -1.6500    0.0000 C   0  0  0  0  0  0  0  0  0  0  0  0
   -0.7145   -2.0625    0.0000 C   0  0  0  0  0  0  0  0  0  0  0  0
   -0.4125   -0.9355    0.0000 C   0  0  0  0  0  0  0  0  0  0  0  0
    0.4125   -2.3645    0.0000 C   0  0  0  0  0  0  0  0  0  0  0  0
    4.2868   -1.6500    0.0000 C   0  0  0  0  0  0  0  0  0  0  0  0
    5.0013   -1.2375    0.0000 N   0  0  0  0  0  0  0  0  0  0  0  0
    4.2868   -2.4750    0.0000 O   0  0  0  0  0  0  0  0  0  0  0  0
   -0.7145    2.0625    0.0000 C   0  0  0  0  0  0  0  0  0  0  0  0
   -0.1842    1.4305    0.0000 F   0  0  0  0  0  0  0  0  0  0  0  0
   -1.2448    1.4305    0.0000 F   0  0  0  0  0  0  0  0  0  0  0  0
   -1.4289    2.4750    0.0000 C   0  0  0  0  0  0  0  0  0  0  0  0
  1  2  1  0  0  0  0
  2  3  1  0  0  0  0
  2  4  1  0  0  0  0
  2  5  1  0  0  0  0
  5  6  1  0  0  0  0
  6  7  2  0  0  0  0
  6  8  1  0  0  0  0
  8  9  1  0  0  0  0
  9 10  1  0  0  0  0
 10 11  1  0  0  0  0
 11 12  1  0  0  0  0
 12 13  1  0  0  0  0
 13 14  2  0  0  0  0
 13 15  1  0  0  0  0
 15 16  1  0  0  0  0
 16 17  2  0  0  0  0
 17 18  1  0  0  0  0
 18 19  1  0  0  0  0
 19 20  2  0  0  0  0
 19 21  1  0  0  0  0
 21 22  2  0  0  0  0
 22 23  1  0  0  0  0
 17 23  1  0  0  0  0
 23 24  2  0  0  0  0
 24 25  1  0  0  0  0
 25 26  2  0  0  0  0
 16 26  1  0  0  0  0
 25 27  1  0  0  0  0
 27 28  1  0  0  0  0
 27 29  1  0  0  0  0
 27 30  1  0  0  0  0
 21 31  1  0  0  0  0
 31 32  1  0  0  0  0
 31 33  2  0  0  0  0
 11 34  1  0  0  0  0
 34 35  1  0  0  0  0
 34 36  1  0  0  0  0
 34 37  1  0  0  0  0
  8 37  1  0  0  0  0
M  END
> <ID>
CPD_3845

$$$$
CPD_3850
  Mrv1822 09091914012D          

 28 29  0  0  0  0            999 V2000
   -4.2868   -0.8250    0.0000 C   0  0  0  0  0  0  0  0  0  0  0  0
   -3.5724   -1.2375    0.0000 C   0  0  0  0  0  0  0  0  0  0  0  0
   -3.9849   -1.9520    0.0000 C   0  0  0  0  0  0  0  0  0  0  0  0
   -3.1599   -0.5230    0.0000 C   0  0  0  0  0  0  0  0  0  0  0  0
   -2.8579   -1.6500    0.0000 O   0  0  0  0  0  0  0  0  0  0  0  0
   -2.1434   -1.2375    0.0000 C   0  0  0  0  0  0  0  0  0  0  0  0
   -2.1434   -0.4125    0.0000 O   0  0  0  0  0  0  0  0  0  0  0  0
   -1.4289   -1.6500    0.0000 N   0  0  0  0  0  0  0  0  0  0  0  0
   -0.7145   -1.2375    0.0000 C   0  0  0  0  0  0  0  0  0  0  0  0
    0.0000   -1.6500    0.0000 C   0  0  0  0  0  0  0  0  0  0  0  0
    0.0000   -2.4750    0.0000 C   0  0  0  0  0  0  0  0  0  0  0  0
    0.7145   -2.8875    0.0000 C   0  0  0  0  0  0  0  0  0  0  0  0
    1.4289   -2.4750    0.0000 C   0  0  0  0  0  0  0  0  0  0  0  0
    1.4289   -1.6500    0.0000 O   0  0  0  0  0  0  0  0  0  0  0  0
    2.1434   -2.8875    0.0000 O   0  0  0  0  0  0  0  0  0  0  0  0
    2.8579   -2.4750    0.0000 C   0  0  0  0  0  0  0  0  0  0  0  0
    3.5724   -2.8875    0.0000 C   0  0  0  0  0  0  0  0  0  0  0  0
    4.2868   -2.4750    0.0000 C   0  0  0  0  0  0  0  0  0  0  0  0
    5.0013   -2.8875    0.0000 C   0  0  0  0  0  0  0  0  0  0  0  0
    5.7158   -2.4750    0.0000 Cl  0  0  0  0  0  0  0  0  0  0  0  0
    5.0013   -3.7125    0.0000 C   0  0  0  0  0  0  0  0  0  0  0  0
    5.7158   -4.1250    0.0000 Br  0  0  0  0  0  0  0  0  0  0  0  0
    4.2868   -4.1250    0.0000 C   0  0  0  0  0  0  0  0  0  0  0  0
    3.5724   -3.7125    0.0000 C   0  0  0  0  0  0  0  0  0  0  0  0
   -0.7145   -2.8875    0.0000 C   0  0  0  0  0  0  0  0  0  0  0  0
   -0.1842   -3.5195    0.0000 F   0  0  0  0  0  0  0  0  0  0  0  0
   -1.2448   -3.5195    0.0000 F   0  0  0  0  0  0  0  0  0  0  0  0
   -1.4289   -2.4750    0.0000 C   0  0  0  0  0  0  0  0  0  0  0  0
  1  2  1  0  0  0  0
  2  3  1  0  0  0  0
  2  4  1  0  0  0  0
  2  5  1  0  0  0  0
  5  6  1  0  0  0  0
  6  7  2  0  0  0  0
  6  8  1  0  0  0  0
  8  9  1  0  0  0  0
  9 10  1  0  0  0  0
 10 11  1  0  0  0  0
 11 12  1  0  0  0  0
 12 13  1  0  0  0  0
 13 14  2  0  0  0  0
 13 15  1  0  0  0  0
 15 16  1  0  0  0  0
 16 17  1  0  0  0  0
 17 18  2  0  0  0  0
 18 19  1  0  0  0  0
 19 20  1  0  0  0  0
 19 21  2  0  0  0  0
 21 22  1  0  0  0  0
 21 23  1  0  0  0  0
 23 24  2  0  0  0  0
 17 24  1  0  0  0  0
 11 25  1  0  0  0  0
 25 26  1  0  0  0  0
 25 27  1  0  0  0  0
 25 28  1  0  0  0  0
  8 28  1  0  0  0  0
M  END
> <ID>
CPD_3850

$$$$
CPD_3855
  Mrv1822 09091914012D          

 37 41  0  0  0  0            999 V2000
    2.5600    0.7927    0.0000 C   0  0  0  0  0  0  0  0  0  0  0  0
    1.9469    1.3448    0.0000 C   0  0  0  0  0  0  0  0  0  0  0  0
    2.5600    1.8968    0.0000 C   0  0  0  0  0  0  0  0  0  0  0  0
    1.4620    0.6773    0.0000 S   0  0  0  0  0  0  0  0  0  0  0  0
    0.6773    0.9323    0.0000 C   0  0  0  0  0  0  0  0  0  0  0  0
   -0.1477    0.9323    0.0000 C   0  0  0  0  0  0  0  0  0  0  0  0
   -0.7310    0.3489    0.0000 N   0  0  0  0  0  0  0  0  0  0  0  0
   -1.5279    0.5624    0.0000 C   0  0  0  0  0  0  0  0  0  0  0  0
   -1.7414    1.3593    0.0000 O   0  0  0  0  0  0  0  0  0  0  0  0
   -2.1113   -0.0209    0.0000 C   0  0  0  0  0  0  0  0  0  0  0  0
   -1.8977   -0.8178    0.0000 N   0  0  0  0  0  0  0  0  0  0  0  0
   -2.9082    0.1926    0.0000 C   0  0  0  0  0  0  0  0  0  0  0  0
   -3.4915   -0.3908    0.0000 C   0  0  0  0  0  0  0  0  0  0  0  0
   -4.2884   -0.1772    0.0000 C   0  0  0  0  0  0  0  0  0  0  0  0
   -4.5019    0.6197    0.0000 C   0  0  0  0  0  0  0  0  0  0  0  0
   -5.2988    0.8332    0.0000 O   0  0  0  0  0  0  0  0  0  0  0  0
   -3.9186    1.2030    0.0000 C   0  0  0  0  0  0  0  0  0  0  0  0
   -3.1217    0.9895    0.0000 C   0  0  0  0  0  0  0  0  0  0  0  0
   -0.1477    1.7573    0.0000 C   0  0  0  0  0  0  0  0  0  0  0  0
   -0.7310    2.3406    0.0000 O   0  0  0  0  0  0  0  0  0  0  0  0
    0.6773    1.7573    0.0000 N   0  0  0  0  0  0  0  0  0  0  0  0
    1.4620    2.0122    0.0000 C   0  0  0  0  0  0  0  0  0  0  0  0
    1.7169    2.7968    0.0000 C   0  0  0  0  0  0  0  0  0  0  0  0
    1.1649    3.4099    0.0000 O   0  0  0  0  0  0  0  0  0  0  0  0
    2.5239    2.9684    0.0000 O   0  0  0  0  0  0  0  0  0  0  0  0
    3.0759    2.3553    0.0000 C   0  0  0  0  0  0  0  0  0  0  0  0
    3.8829    2.5268    0.0000 C   0  0  0  0  0  0  0  0  0  0  0  0
    4.2184    3.2805    0.0000 N   0  0  0  0  0  0  0  0  0  0  0  0
    5.0389    3.1942    0.0000 N   0  0  0  0  0  0  0  0  0  0  0  0
    5.2104    2.3873    0.0000 C   0  0  0  0  0  0  0  0  0  0  0  0
    4.4960    1.9748    0.0000 C   0  0  0  0  0  0  0  0  0  0  0  0
    5.9641    2.0517    0.0000 C   0  0  0  0  0  0  0  0  0  0  0  0
    6.6316    2.5366    0.0000 C   0  0  0  0  0  0  0  0  0  0  0  0
    7.3852    2.2011    0.0000 C   0  0  0  0  0  0  0  0  0  0  0  0
    7.4715    1.3806    0.0000 C   0  0  0  0  0  0  0  0  0  0  0  0
    6.8040    0.8957    0.0000 N   0  0  0  0  0  0  0  0  0  0  0  0
    6.0504    1.2312    0.0000 C   0  0  0  0  0  0  0  0  0  0  0  0
  1  2  1  0  0  0  0
  2  3  1  0  0  0  0
  2  4  1  0  0  0  0
  4  5  1  0  0  0  0
  5  6  1  0  0  0  0
  6  7  1  0  0  0  0
  7  8  1  0  0  0  0
  8  9  2  0  0  0  0
  8 10  1  0  0  0  0
 10 11  1  0  0  0  0
 10 12  1  0  0  0  0
 12 13  2  0  0  0  0
 13 14  1  0  0  0  0
 14 15  2  0  0  0  0
 15 16  1  0  0  0  0
 15 17  1  0  0  0  0
 17 18  2  0  0  0  0
 12 18  1  0  0  0  0
  6 19  1  0  0  0  0
 19 20  2  0  0  0  0
 19 21  1  0  0  0  0
  5 21  1  0  0  0  0
 21 22  1  0  0  0  0
  2 22  1  0  0  0  0
 22 23  1  0  0  0  0
 23 24  2  0  0  0  0
 23 25  1  0  0  0  0
 25 26  1  0  0  0  0
 26 27  1  0  0  0  0
 27 28  2  0  0  0  0
 28 29  1  0  0  0  0
 29 30  1  0  0  0  0
 30 31  2  0  0  0  0
 27 31  1  0  0  0  0
 30 32  1  0  0  0  0
 32 33  2  0  0  0  0
 33 34  1  0  0  0  0
 34 35  2  0  0  0  0
 35 36  1  0  0  0  0
 36 37  2  0  0  0  0
 32 37  1  0  0  0  0
M  END
> <ID>
CPD_3855

$$$$
CPD_3860
  Mrv1822 09091914012D          

 22 25  0  0  0  0            999 V2000
    4.7079    2.0625    0.0000 O   0  0  0  0  0  0  0  0  0  0  0  0
    3.9934    2.4750    0.0000 C   0  0  0  0  0  0  0  0  0  0  0  0
    3.2789    2.0625    0.0000 O   0  0  0  0  0  0  0  0  0  0  0  0
    3.2789    1.2375    0.0000 C   0  0  0  0  0  0  0  0  0  0  0  0
    3.9934    0.8250    0.0000 N   0  0  0  0  0  0  0  0  0  0  0  0
    3.9934    0.0000    0.0000 C   0  0  0  0  0  0  0  0  0  0  0  0
    3.2789   -0.4125    0.0000 N   0  0  0  0  0  0  0  0  0  0  0  0
    2.5645    0.0000    0.0000 C   0  0  0  0  0  0  0  0  0  0  0  0
    2.5645    0.8250    0.0000 C   0  0  0  0  0  0  0  0  0  0  0  0
    1.7798    1.0799    0.0000 N   0  0  0  0  0  0  0  0  0  0  0  0
    1.2949    0.4125    0.0000 C   0  0  0  0  0  0  0  0  0  0  0  0
    1.7798   -0.2549    0.0000 C   0  0  0  0  0  0  0  0  0  0  0  0
    3.9934    3.3000    0.0000 C   0  0  0  0  0  0  0  0  0  0  0  0
    3.3260    3.7849    0.0000 N   0  0  0  0  0  0  0  0  0  0  0  0
    3.5809    4.5695    0.0000 O   0  0  0  0  0  0  0  0  0  0  0  0
    4.4059    4.5695    0.0000 C   0  0  0  0  0  0  0  0  0  0  0  0
    4.6608    3.7849    0.0000 C   0  0  0  0  0  0  0  0  0  0  0  0
    4.8908    5.2370    0.0000 C   0  0  0  0  0  0  0  0  0  0  0  0
    4.6359    6.0216    0.0000 N   0  0  0  0  0  0  0  0  0  0  0  0
    5.3033    6.5065    0.0000 C   0  0  0  0  0  0  0  0  0  0  0  0
    5.9708    6.0216    0.0000 C   0  0  0  0  0  0  0  0  0  0  0  0
    5.7158    5.2370    0.0000 S   0  0  0  0  0  0  0  0  0  0  0  0
  1  2  2  0  0  0  0
  2  3  1  0  0  0  0
  3  4  1  0  0  0  0
  4  5  2  0  0  0  0
  5  6  1  0  0  0  0
  6  7  2  0  0  0  0
  7  8  1  0  0  0  0
  8  9  2  0  0  0  0
  4  9  1  0  0  0  0
  9 10  1  0  0  0  0
 10 11  1  0  0  0  0
 11 12  2  0  0  0  0
  8 12  1  0  0  0  0
  2 13  1  0  0  0  0
 13 14  2  0  0  0  0
 14 15  1  0  0  0  0
 15 16  1  0  0  0  0
 16 17  2  0  0  0  0
 13 17  1  0  0  0  0
 16 18  1  0  0  0  0
 18 19  2  0  0  0  0
 19 20  1  0  0  0  0
 20 21  2  0  0  0  0
 21 22  1  0  0  0  0
 18 22  1  0  0  0  0
M  END
> <ID>
CPD_3860

$$$$
CPD_3865
  Mrv1822 09091914012D          

 26 29  0  0  0  0            999 V2000
    1.5395   -1.0164    0.0000 C   0  0  0  0  0  0  0  0  0  0  0  0
    1.1270   -0.3020    0.0000 C   0  0  0  0  0  0  0  0  0  0  0  0
    0.3020   -0.3020    0.0000 N   0  0  0  0  0  0  0  0  0  0  0  0
   -0.1105    0.4125    0.0000 N   0  0  0  0  0  0  0  0  0  0  0  0
    0.3020    1.1270    0.0000 C   0  0  0  0  0  0  0  0  0  0  0  0
   -0.1105    1.8414    0.0000 O   0  0  0  0  0  0  0  0  0  0  0  0
    1.1270    1.1270    0.0000 C   0  0  0  0  0  0  0  0  0  0  0  0
    1.5395    1.8414    0.0000 O   0  0  0  0  0  0  0  0  0  0  0  0
    1.1270    2.5559    0.0000 C   0  0  0  0  0  0  0  0  0  0  0  0
    0.3020    2.5559    0.0000 O   0  0  0  0  0  0  0  0  0  0  0  0
    1.5395    3.2704    0.0000 C   0  0  0  0  0  0  0  0  0  0  0  0
    1.2039    4.0241    0.0000 N   0  0  0  0  0  0  0  0  0  0  0  0
    1.8170    4.5761    0.0000 O   0  0  0  0  0  0  0  0  0  0  0  0
    2.5315    4.1636    0.0000 C   0  0  0  0  0  0  0  0  0  0  0  0
    2.3600    3.3566    0.0000 C   0  0  0  0  0  0  0  0  0  0  0  0
    3.2852    4.4991    0.0000 C   0  0  0  0  0  0  0  0  0  0  0  0
    3.4567    5.3061    0.0000 N   0  0  0  0  0  0  0  0  0  0  0  0
    4.2772    5.3924    0.0000 C   0  0  0  0  0  0  0  0  0  0  0  0
    4.6127    4.6387    0.0000 C   0  0  0  0  0  0  0  0  0  0  0  0
    3.9996    4.0866    0.0000 S   0  0  0  0  0  0  0  0  0  0  0  0
    1.5395    0.4125    0.0000 C   0  0  0  0  0  0  0  0  0  0  0  0
    1.9520    1.1270    0.0000 C   0  0  0  0  0  0  0  0  0  0  0  0
    2.7770    1.1270    0.0000 C   0  0  0  0  0  0  0  0  0  0  0  0
    3.1895    0.4125    0.0000 C   0  0  0  0  0  0  0  0  0  0  0  0
    2.7770   -0.3020    0.0000 C   0  0  0  0  0  0  0  0  0  0  0  0
    1.9520   -0.3020    0.0000 C   0  0  0  0  0  0  0  0  0  0  0  0
  1  2  1  0  0  0  0
  2  3  2  0  0  0  0
  3  4  1  0  0  0  0
  4  5  1  0  0  0  0
  5  6  2  0  0  0  0
  5  7  1  0  0  0  0
  7  8  1  0  0  0  0
  8  9  1  0  0  0  0
  9 10  2  0  0  0  0
  9 11  1  0  0  0  0
 11 12  2  0  0  0  0
 12 13  1  0  0  0  0
 13 14  1  0  0  0  0
 14 15  2  0  0  0  0
 11 15  1  0  0  0  0
 14 16  1  0  0  0  0
 16 17  2  0  0  0  0
 17 18  1  0  0  0  0
 18 19  2  0  0  0  0
 19 20  1  0  0  0  0
 16 20  1  0  0  0  0
  7 21  1  0  0  0  0
  2 21  1  0  0  0  0
 21 22  1  0  0  0  0
 22 23  1  0  0  0  0
 23 24  1  0  0  0  0
 24 25  1  0  0  0  0
 25 26  1  0  0  0  0
 21 26  1  0  0  0  0
M  END
> <ID>
CPD_3865

$$$$
CPD_3870
  Mrv1822 09091914012D          

 34 35  0  0  1  0            999 V2000
    4.8480   -7.2255    0.0000 C   0  0  0  0  0  0  0  0  0  0  0  0
    4.0410   -7.0540    0.0000 C   0  0  0  0  0  0  0  0  0  0  0  0
    4.2125   -6.2470    0.0000 C   0  0  0  0  0  0  0  0  0  0  0  0
    3.8695   -7.8610    0.0000 C   0  0  0  0  0  0  0  0  0  0  0  0
    3.2340   -6.8825    0.0000 O   0  0  0  0  0  0  0  0  0  0  0  0
    2.6820   -7.4956    0.0000 C   0  0  0  0  0  0  0  0  0  0  0  0
    2.9369   -8.2802    0.0000 O   0  0  0  0  0  0  0  0  0  0  0  0
    1.8750   -7.3241    0.0000 N   0  0  0  0  0  0  0  0  0  0  0  0
    1.2619   -7.8761    0.0000 C   0  0  0  0  0  0  0  0  0  0  0  0
    0.5475   -7.4636    0.0000 C   0  0  0  0  0  0  0  0  0  0  0  0
    0.7190   -6.6566    0.0000 C   0  0  1  0  0  0  0  0  0  0  0  0
    0.1670   -6.0435    0.0000 C   0  0  0  0  0  0  0  0  0  0  0  0
   -0.6400   -6.2151    0.0000 C   0  0  0  0  0  0  0  0  0  0  0  0
   -1.4470   -6.3866    0.0000 C   0  0  0  0  0  0  0  0  0  0  0  0
    1.5395   -6.5704    0.0000 C   0  0  1  0  0  0  0  0  0  0  0  0
    1.9520   -5.8559    0.0000 C   0  0  0  0  0  0  0  0  0  0  0  0
    2.7770   -5.8559    0.0000 O   0  0  0  0  0  0  0  0  0  0  0  0
    1.5395   -5.1414    0.0000 O   0  0  0  0  0  0  0  0  0  0  0  0
    1.9520   -4.4270    0.0000 C   0  0  2  0  0  0  0  0  0  0  0  0
    1.5395   -3.7125    0.0000 C   0  0  1  0  0  0  0  0  0  0  0  0
    1.9520   -2.9980    0.0000 O   0  0  0  0  0  0  0  0  0  0  0  0
    0.7145   -3.7125    0.0000 C   0  0  0  0  0  0  0  0  0  0  0  0
    0.3020   -4.4270    0.0000 O   0  0  0  0  0  0  0  0  0  0  0  0
    0.3020   -2.9980    0.0000 O   0  0  0  0  0  0  0  0  0  0  0  0
    2.7770   -4.4270    0.0000 C   0  0  0  0  0  0  0  0  0  0  0  0
    3.1895   -5.1414    0.0000 O   0  0  0  0  0  0  0  0  0  0  0  0
    3.1895   -3.7125    0.0000 N   0  0  0  0  0  0  0  0  0  0  0  0
    4.0145   -3.7125    0.0000 C   0  0  0  0  0  0  0  0  0  0  0  0
    4.4270   -2.9980    0.0000 C   0  0  0  0  0  0  0  0  0  0  0  0
    5.2520   -2.9980    0.0000 C   0  0  0  0  0  0  0  0  0  0  0  0
    5.6645   -3.7125    0.0000 C   0  0  0  0  0  0  0  0  0  0  0  0
    6.4895   -3.7125    0.0000 F   0  0  0  0  0  0  0  0  0  0  0  0
    5.2520   -4.4270    0.0000 C   0  0  0  0  0  0  0  0  0  0  0  0
    4.4270   -4.4270    0.0000 C   0  0  0  0  0  0  0  0  0  0  0  0
  1  2  1  0  0  0  0
  2  3  1  0  0  0  0
  2  4  1  0  0  0  0
  2  5  1  0  0  0  0
  5  6  1  0  0  0  0
  6  7  2  0  0  0  0
  6  8  1  0  0  0  0
  8  9  1  0  0  0  0
  9 10  1  0  0  0  0
 11 10  1  0  0  0  0
 11 12  1  1  0  0  0
 12 13  1  0  0  0  0
 13 14  3  0  0  0  0
 11 15  1  0  0  0  0
 15  8  1  0  0  0  0
 15 16  1  1  0  0  0
 16 17  2  0  0  0  0
 16 18  1  0  0  0  0
 19 18  1  6  0  0  0
 19 20  1  0  0  0  0
 20 21  1  6  0  0  0
 20 22  1  0  0  0  0
 22 23  1  0  0  0  0
 22 24  2  0  0  0  0
 19 25  1  0  0  0  0
 25 26  2  0  0  0  0
 25 27  1  0  0  0  0
 27 28  1  0  0  0  0
 28 29  2  0  0  0  0
 29 30  1  0  0  0  0
 30 31  2  0  0  0  0
 31 32  1  0  0  0  0
 31 33  1  0  0  0  0
 33 34  2  0  0  0  0
 28 34  1  0  0  0  0
M  END
> <ID>
CPD_3870

$$$$
CPD_3875
  Mrv1822 09091914012D          

 39 43  0  0  0  0            999 V2000
   -1.4289   -2.4750    0.0000 C   0  0  0  0  0  0  0  0  0  0  0  0
   -1.4289   -1.6500    0.0000 O   0  0  0  0  0  0  0  0  0  0  0  0
   -0.7145   -1.2375    0.0000 C   0  0  0  0  0  0  0  0  0  0  0  0
    0.0000   -1.6500    0.0000 C   0  0  0  0  0  0  0  0  0  0  0  0
    0.7145   -1.2375    0.0000 C   0  0  0  0  0  0  0  0  0  0  0  0
    0.7145   -0.4125    0.0000 C   0  0  0  0  0  0  0  0  0  0  0  0
    1.4289   -0.0000    0.0000 O   0  0  0  0  0  0  0  0  0  0  0  0
    2.1434   -0.4125    0.0000 C   0  0  0  0  0  0  0  0  0  0  0  0
    2.8579   -0.0000    0.0000 O   0  0  0  0  0  0  0  0  0  0  0  0
    2.1434   -1.2375    0.0000 C   0  0  0  0  0  0  0  0  0  0  0  0
    1.4289   -1.6500    0.0000 C   0  0  0  0  0  0  0  0  0  0  0  0
    0.0000   -0.0000    0.0000 C   0  0  0  0  0  0  0  0  0  0  0  0
    0.0000    0.8250    0.0000 O   0  0  0  0  0  0  0  0  0  0  0  0
    0.7145    1.2375    0.0000 C   0  0  0  0  0  0  0  0  0  0  0  0
   -0.7145   -0.4125    0.0000 C   0  0  0  0  0  0  0  0  0  0  0  0
   -1.4289    0.0000    0.0000 O   0  0  0  0  0  0  0  0  0  0  0  0
   -1.4289    0.8250    0.0000 C   0  0  0  0  0  0  0  0  0  0  0  0
   -0.7145    1.2375    0.0000 O   0  0  0  0  0  0  0  0  0  0  0  0
   -2.1434    1.2375    0.0000 C   0  0  0  0  0  0  0  0  0  0  0  0
   -2.1434    2.0625    0.0000 C   0  0  0  0  0  0  0  0  0  0  0  0
   -2.8579    2.4750    0.0000 C   0  0  0  0  0  0  0  0  0  0  0  0
   -2.8579    3.3000    0.0000 C   0  0  0  0  0  0  0  0  0  0  0  0
   -2.1434    3.7125    0.0000 C   0  0  0  0  0  0  0  0  0  0  0  0
   -1.4289    3.3000    0.0000 C   0  0  0  0  0  0  0  0  0  0  0  0
   -1.4289    2.4750    0.0000 C   0  0  0  0  0  0  0  0  0  0  0  0
   -2.1434    4.5375    0.0000 C   0  0  0  0  0  0  0  0  0  0  0  0
   -2.8579    4.9500    0.0000 C   0  0  0  0  0  0  0  0  0  0  0  0
   -2.8579    5.7750    0.0000 C   0  0  0  0  0  0  0  0  0  0  0  0
   -2.1434    6.1875    0.0000 C   0  0  0  0  0  0  0  0  0  0  0  0
   -1.4289    5.7750    0.0000 C   0  0  0  0  0  0  0  0  0  0  0  0
   -0.7145    6.1875    0.0000 O   0  0  0  0  0  0  0  0  0  0  0  0
   -0.7145    7.0125    0.0000 C   0  0  0  0  0  0  0  0  0  0  0  0
   -1.4289    7.4250    0.0000 C   0  0  0  0  0  0  0  0  0  0  0  0
   -2.1434    7.0125    0.0000 C   0  0  0  0  0  0  0  0  0  0  0  0
   -2.8579    7.4250    0.0000 C   0  0  0  0  0  0  0  0  0  0  0  0
   -2.8579    8.2500    0.0000 C   0  0  0  0  0  0  0  0  0  0  0  0
   -2.1434    8.6625    0.0000 C   0  0  0  0  0  0  0  0  0  0  0  0
   -1.4289    8.2500    0.0000 C   0  0  0  0  0  0  0  0  0  0  0  0
   -1.4289    4.9500    0.0000 C   0  0  0  0  0  0  0  0  0  0  0  0
  1  2  1  0  0  0  0
  2  3  1  0  0  0  0
  3  4  2  0  0  0  0
  4  5  1  0  0  0  0
  5  6  2  0  0  0  0
  6  7  1  0  0  0  0
  7  8  1  0  0  0  0
  8  9  2  0  0  0  0
  8 10  1  0  0  0  0
 10 11  2  0  0  0  0
  5 11  1  0  0  0  0
  6 12  1  0  0  0  0
 12 13  1  0  0  0  0
 13 14  1  0  0  0  0
 12 15  2  0  0  0  0
  3 15  1  0  0  0  0
 15 16  1  0  0  0  0
 16 17  1  0  0  0  0
 17 18  2  0  0  0  0
 17 19  1  0  0  0  0
 19 20  1  0  0  0  0
 20 21  2  0  0  0  0
 21 22  1  0  0  0  0
 22 23  2  0  0  0  0
 23 24  1  0  0  0  0
 24 25  2  0  0  0  0
 20 25  1  0  0  0  0
 23 26  1  0  0  0  0
 26 27  2  0  0  0  0
 27 28  1  0  0  0  0
 28 29  2  0  0  0  0
 29 30  1  0  0  0  0
 30 31  1  0  0  0  0
 31 32  1  0  0  0  0
 32 33  1  0  0  0  0
 33 34  2  0  0  0  0
 34 35  1  0  0  0  0
 35 36  2  0  0  0  0
 36 37  1  0  0  0  0
 37 38  2  0  0  0  0
 33 38  1  0  0  0  0
 30 39  2  0  0  0  0
 26 39  1  0  0  0  0
M  END
> <ID>
CPD_3875

$$$$
CPD_3880
  Mrv1822 09091914012D          

 26 27  0  0  0  0            999 V2000
    0.7145   -1.2375    0.0000 O   0  0  0  0  0  0  0  0  0  0  0  0
    1.4289   -1.6500    0.0000 C   0  0  0  0  0  0  0  0  0  0  0  0
    2.1434   -1.2375    0.0000 O   0  0  0  0  0  0  0  0  0  0  0  0
    1.4289   -2.4750    0.0000 C   0  0  0  0  0  0  0  0  0  0  0  0
    2.1434   -2.8875    0.0000 C   0  0  0  0  0  0  0  0  0  0  0  0
    2.1434   -3.7125    0.0000 N   0  0  0  0  0  0  0  0  0  0  0  0
    1.4289   -4.1250    0.0000 C   0  0  0  0  0  0  0  0  0  0  0  0
    1.4289   -4.9500    0.0000 O   0  0  0  0  0  0  0  0  0  0  0  0
    2.1434   -5.3625    0.0000 C   0  0  0  0  0  0  0  0  0  0  0  0
    2.8579   -4.9500    0.0000 O   0  0  0  0  0  0  0  0  0  0  0  0
    2.1434   -6.1875    0.0000 C   0  0  0  0  0  0  0  0  0  0  0  0
    2.8579   -6.6000    0.0000 C   0  0  0  0  0  0  0  0  0  0  0  0
    2.8579   -7.4250    0.0000 C   0  0  0  0  0  0  0  0  0  0  0  0
    2.1434   -7.8375    0.0000 C   0  0  0  0  0  0  0  0  0  0  0  0
    1.4289   -7.4250    0.0000 C   0  0  0  0  0  0  0  0  0  0  0  0
    1.4289   -6.6000    0.0000 C   0  0  0  0  0  0  0  0  0  0  0  0
    2.1434   -8.6625    0.0000 C   0  0  0  0  0  0  0  0  0  0  0  0
    1.3184   -8.6625    0.0000 F   0  0  0  0  0  0  0  0  0  0  0  0
    2.9684   -8.6625    0.0000 F   0  0  0  0  0  0  0  0  0  0  0  0
    2.1434   -9.4875    0.0000 C   0  0  0  0  0  0  0  0  0  0  0  0
    2.1434  -10.3125    0.0000 F   0  0  0  0  0  0  0  0  0  0  0  0
    1.3184   -9.4875    0.0000 F   0  0  0  0  0  0  0  0  0  0  0  0
    2.9684   -9.4875    0.0000 F   0  0  0  0  0  0  0  0  0  0  0  0
    0.7145   -3.7125    0.0000 N   0  0  0  0  0  0  0  0  0  0  0  0
    0.7145   -2.8875    0.0000 C   0  0  0  0  0  0  0  0  0  0  0  0
    0.0000   -2.4750    0.0000 O   0  0  0  0  0  0  0  0  0  0  0  0
  1  2  1  0  0  0  0
  2  3  2  0  0  0  0
  2  4  1  0  0  0  0
  4  5  2  0  0  0  0
  5  6  1  0  0  0  0
  6  7  2  0  0  0  0
  7  8  1  0  0  0  0
  8  9  1  0  0  0  0
  9 10  2  0  0  0  0
  9 11  1  0  0  0  0
 11 12  2  0  0  0  0
 12 13  1  0  0  0  0
 13 14  2  0  0  0  0
 14 15  1  0  0  0  0
 15 16  2  0  0  0  0
 11 16  1  0  0  0  0
 14 17  1  0  0  0  0
 17 18  1  0  0  0  0
 17 19  1  0  0  0  0
 17 20  1  0  0  0  0
 20 21  1  0  0  0  0
 20 22  1  0  0  0  0
 20 23  1  0  0  0  0
  7 24  1  0  0  0  0
 24 25  2  0  0  0  0
  4 25  1  0  0  0  0
 25 26  1  0  0  0  0
M  END
> <ID>
CPD_3880

$$$$
CPD_3885
  Mrv1822 09091914012D          

 26 28  0  0  0  0            999 V2000
    4.2868   11.3036    0.0000 F   0  0  0  0  0  0  0  0  0  0  0  0
    5.0013   10.8911    0.0000 C   0  0  0  0  0  0  0  0  0  0  0  0
    4.5888   10.1766    0.0000 F   0  0  0  0  0  0  0  0  0  0  0  0
    5.4138   11.6055    0.0000 F   0  0  0  0  0  0  0  0  0  0  0  0
    5.7158   10.4786    0.0000 C   0  0  0  0  0  0  0  0  0  0  0  0
    6.4302   10.8911    0.0000 C   0  0  0  0  0  0  0  0  0  0  0  0
    7.1447   10.4786    0.0000 C   0  0  0  0  0  0  0  0  0  0  0  0
    7.1447    9.6536    0.0000 C   0  0  0  0  0  0  0  0  0  0  0  0
    6.4302    9.2411    0.0000 N   0  0  0  0  0  0  0  0  0  0  0  0
    5.7158    9.6536    0.0000 C   0  0  0  0  0  0  0  0  0  0  0  0
    5.0013    9.2411    0.0000 O   0  0  0  0  0  0  0  0  0  0  0  0
    5.0013    8.4161    0.0000 C   0  0  0  0  0  0  0  0  0  0  0  0
    5.7158    8.0036    0.0000 C   0  0  0  0  0  0  0  0  0  0  0  0
    5.7158    7.1786    0.0000 C   0  0  0  0  0  0  0  0  0  0  0  0
    5.0013    6.7661    0.0000 C   0  0  0  0  0  0  0  0  0  0  0  0
    4.2868    7.1786    0.0000 C   0  0  0  0  0  0  0  0  0  0  0  0
    3.5724    6.7661    0.0000 C   0  0  0  0  0  0  0  0  0  0  0  0
    3.5724    5.9411    0.0000 O   0  0  0  0  0  0  0  0  0  0  0  0
    2.8579    5.5286    0.0000 C   0  0  0  0  0  0  0  0  0  0  0  0
    2.8579    4.7036    0.0000 C   0  0  0  0  0  0  0  0  0  0  0  0
    3.5253    4.2187    0.0000 C   0  0  0  0  0  0  0  0  0  0  0  0
    3.2704    3.4340    0.0000 S   0  0  0  0  0  0  0  0  0  0  0  0
    2.4454    3.4340    0.0000 C   0  0  0  0  0  0  0  0  0  0  0  0
    1.9605    2.7666    0.0000 Cl  0  0  0  0  0  0  0  0  0  0  0  0
    2.1904    4.2187    0.0000 C   0  0  0  0  0  0  0  0  0  0  0  0
    4.2868    8.0036    0.0000 C   0  0  0  0  0  0  0  0  0  0  0  0
  1  2  1  0  0  0  0
  2  3  1  0  0  0  0
  2  4  1  0  0  0  0
  2  5  1  0  0  0  0
  5  6  2  0  0  0  0
  6  7  1  0  0  0  0
  7  8  2  0  0  0  0
  8  9  1  0  0  0  0
  9 10  2  0  0  0  0
  5 10  1  0  0  0  0
 10 11  1  0  0  0  0
 11 12  1  0  0  0  0
 12 13  2  0  0  0  0
 13 14  1  0  0  0  0
 14 15  2  0  0  0  0
 15 16  1  0  0  0  0
 16 17  1  0  0  0  0
 17 18  1  0  0  0  0
 18 19  1  0  0  0  0
 19 20  1  0  0  0  0
 20 21  2  0  0  0  0
 21 22  1  0  0  0  0
 22 23  1  0  0  0  0
 23 24  1  0  0  0  0
 23 25  2  0  0  0  0
 20 25  1  0  0  0  0
 16 26  2  0  0  0  0
 12 26  1  0  0  0  0
M  END
> <ID>
CPD_3885

$$$$
CPD_3890
  Mrv1822 09091914012D          

 24 26  0  0  0  0            999 V2000
   -3.0584   -0.3020    0.0000 C   0  0  0  0  0  0  0  0  0  0  0  0
   -2.2334   -0.3020    0.0000 C   0  0  0  0  0  0  0  0  0  0  0  0
   -2.2334   -1.1270    0.0000 C   0  0  0  0  0  0  0  0  0  0  0  0
   -2.2334    0.5230    0.0000 C   0  0  0  0  0  0  0  0  0  0  0  0
   -1.4084   -0.3020    0.0000 O   0  0  0  0  0  0  0  0  0  0  0  0
   -0.9959    0.4125    0.0000 C   0  0  0  0  0  0  0  0  0  0  0  0
   -1.4084    1.1270    0.0000 O   0  0  0  0  0  0  0  0  0  0  0  0
   -0.1709    0.4125    0.0000 N   0  0  0  0  0  0  0  0  0  0  0  0
    0.4125    0.9959    0.0000 C   0  0  0  0  0  0  0  0  0  0  0  0
    0.9959    0.4125    0.0000 C   0  0  0  0  0  0  0  0  0  0  0  0
    0.4125   -0.1709    0.0000 C   0  0  0  0  0  0  0  0  0  0  0  0
    1.4084    1.1270    0.0000 C   0  0  0  0  0  0  0  0  0  0  0  0
    2.2334    1.1270    0.0000 C   0  0  0  0  0  0  0  0  0  0  0  0
    2.6459    0.4125    0.0000 C   0  0  0  0  0  0  0  0  0  0  0  0
    2.2334   -0.3020    0.0000 C   0  0  0  0  0  0  0  0  0  0  0  0
    1.4084   -0.3020    0.0000 C   0  0  0  0  0  0  0  0  0  0  0  0
    3.4709    0.4125    0.0000 O   0  0  0  0  0  0  0  0  0  0  0  0
    3.8834   -0.3020    0.0000 C   0  0  0  0  0  0  0  0  0  0  0  0
    4.7084   -0.3020    0.0000 C   0  0  0  0  0  0  0  0  0  0  0  0
    5.1933    0.3655    0.0000 C   0  0  0  0  0  0  0  0  0  0  0  0
    5.9779    0.1105    0.0000 S   0  0  0  0  0  0  0  0  0  0  0  0
    5.9779   -0.7145    0.0000 C   0  0  0  0  0  0  0  0  0  0  0  0
    6.6453   -1.1994    0.0000 Cl  0  0  0  0  0  0  0  0  0  0  0  0
    5.1933   -0.9694    0.0000 C   0  0  0  0  0  0  0  0  0  0  0  0
  1  2  1  0  0  0  0
  2  3  1  0  0  0  0
  2  4  1  0  0  0  0
  2  5  1  0  0  0  0
  5  6  1  0  0  0  0
  6  7  2  0  0  0  0
  6  8  1  0  0  0  0
  8  9  1  0  0  0  0
  9 10  1  0  0  0  0
 10 11  1  0  0  0  0
  8 11  1  0  0  0  0
 10 12  1  0  0  0  0
 12 13  1  0  0  0  0
 13 14  1  0  0  0  0
 14 15  1  0  0  0  0
 15 16  1  0  0  0  0
 10 16  1  0  0  0  0
 14 17  1  0  0  0  0
 17 18  1  0  0  0  0
 18 19  1  0  0  0  0
 19 20  2  0  0  0  0
 20 21  1  0  0  0  0
 21 22  1  0  0  0  0
 22 23  1  0  0  0  0
 22 24  2  0  0  0  0
 19 24  1  0  0  0  0
M  END
> <ID>
CPD_3890

$$$$
CPD_3895
  Mrv1822 09091914012D          

 23 26  0  0  0  0            999 V2000
   -1.3975    3.1388    0.0000 O   0  0  0  0  0  0  0  0  0  0  0  0
   -0.9850    2.4243    0.0000 C   0  0  0  0  0  0  0  0  0  0  0  0
   -1.3975    1.7098    0.0000 C   0  0  0  0  0  0  0  0  0  0  0  0
   -1.0619    0.9561    0.0000 C   0  0  0  0  0  0  0  0  0  0  0  0
   -1.6750    0.4041    0.0000 S   0  0  0  0  0  0  0  0  0  0  0  0
   -2.3895    0.8166    0.0000 C   0  0  0  0  0  0  0  0  0  0  0  0
   -3.1432    0.4811    0.0000 Cl  0  0  0  0  0  0  0  0  0  0  0  0
   -2.2179    1.6236    0.0000 C   0  0  0  0  0  0  0  0  0  0  0  0
   -0.2549    0.7846    0.0000 C   0  0  0  0  0  0  0  0  0  0  0  0
    0.2971    1.3977    0.0000 O   0  0  0  0  0  0  0  0  0  0  0  0
   -0.0000   -0.0000    0.0000 C   0  0  0  0  0  0  0  0  0  0  0  0
   -0.4849   -0.6674    0.0000 N   0  0  0  0  0  0  0  0  0  0  0  0
   -0.0000   -1.3349    0.0000 N   0  0  0  0  0  0  0  0  0  0  0  0
    0.7846   -1.0799    0.0000 C   0  0  0  0  0  0  0  0  0  0  0  0
    0.7846   -0.2549    0.0000 C   0  0  0  0  0  0  0  0  0  0  0  0
    1.5692    0.0000    0.0000 C   0  0  0  0  0  0  0  0  0  0  0  0
    2.0542   -0.6674    0.0000 C   0  0  0  0  0  0  0  0  0  0  0  0
    1.5692   -1.3349    0.0000 C   0  0  0  0  0  0  0  0  0  0  0  0
    1.8242   -2.1195    0.0000 C   0  0  0  0  0  0  0  0  0  0  0  0
    2.6088   -2.3744    0.0000 C   0  0  0  0  0  0  0  0  0  0  0  0
    2.6088   -3.1994    0.0000 C   0  0  0  0  0  0  0  0  0  0  0  0
    1.8242   -3.4544    0.0000 C   0  0  0  0  0  0  0  0  0  0  0  0
    1.3393   -2.7869    0.0000 C   0  0  0  0  0  0  0  0  0  0  0  0
  1  2  1  0  0  0  0
  2  3  1  0  0  0  0
  3  4  2  0  0  0  0
  4  5  1  0  0  0  0
  5  6  1  0  0  0  0
  6  7  1  0  0  0  0
  6  8  2  0  0  0  0
  3  8  1  0  0  0  0
  4  9  1  0  0  0  0
  9 10  2  0  0  0  0
  9 11  1  0  0  0  0
 11 12  2  0  0  0  0
 12 13  1  0  0  0  0
 13 14  1  0  0  0  0
 14 15  2  0  0  0  0
 11 15  1  0  0  0  0
 15 16  1  0  0  0  0
 16 17  1  0  0  0  0
 17 18  1  0  0  0  0
 14 18  1  0  0  0  0
 18 19  2  0  0  0  0
 19 20  1  0  0  0  0
 20 21  1  0  0  0  0
 21 22  1  0  0  0  0
 22 23  1  0  0  0  0
 19 23  1  0  0  0  0
M  END
> <ID>
CPD_3895

$$$$
CPD_3900
  Mrv1822 09091914012D          

 16 17  0  0  1  0            999 V2000
    1.9023    0.4547    0.0000 C   0  0  0  0  0  0  0  0  0  0  0  0
    2.4543   -0.1584    0.0000 C   0  0  2  0  0  0  0  0  0  0  0  0
    3.1217   -0.6433    0.0000 C   0  0  0  0  0  0  0  0  0  0  0  0
    2.8668   -1.4280    0.0000 C   0  0  0  0  0  0  0  0  0  0  0  0
    2.0418   -1.4280    0.0000 C   0  0  0  0  0  0  0  0  0  0  0  0
    1.7869   -0.6433    0.0000 N   0  0  0  0  0  0  0  0  0  0  0  0
    3.0063    0.4547    0.0000 C   0  0  0  0  0  0  0  0  0  0  0  0
    2.7514    1.2393    0.0000 O   0  0  0  0  0  0  0  0  0  0  0  0
    3.8133    0.2832    0.0000 C   0  0  0  0  0  0  0  0  0  0  0  0
    4.4264    0.8352    0.0000 C   0  0  0  0  0  0  0  0  0  0  0  0
    4.3402    1.6557    0.0000 C   0  0  0  0  0  0  0  0  0  0  0  0
    3.5865    1.9912    0.0000 O   0  0  0  0  0  0  0  0  0  0  0  0
    5.1409    0.4227    0.0000 C   0  0  0  0  0  0  0  0  0  0  0  0
    4.9693   -0.3843    0.0000 C   0  0  0  0  0  0  0  0  0  0  0  0
    5.5214   -0.9974    0.0000 Cl  0  0  0  0  0  0  0  0  0  0  0  0
    4.1489   -0.4705    0.0000 S   0  0  0  0  0  0  0  0  0  0  0  0
  2  1  1  6  0  0  0
  2  3  1  0  0  0  0
  3  4  1  0  0  0  0
  4  5  1  0  0  0  0
  5  6  1  0  0  0  0
  2  6  1  0  0  0  0
  2  7  1  1  0  0  0
  7  8  2  0  0  0  0
  7  9  1  0  0  0  0
  9 10  2  0  0  0  0
 10 11  1  0  0  0  0
 11 12  1  0  0  0  0
 10 13  1  0  0  0  0
 13 14  2  0  0  0  0
 14 15  1  0  0  0  0
 14 16  1  0  0  0  0
  9 16  1  0  0  0  0
M  END
> <ID>
CPD_3900

$$$$
CPD_3905
  Mrv1822 09091914012D          

 20 22  0  0  0  0            999 V2000
   -3.9284   -2.1269    0.0000 C   0  0  0  0  0  0  0  0  0  0  0  0
   -3.1034   -2.1269    0.0000 N   0  0  0  0  0  0  0  0  0  0  0  0
   -2.6909   -1.4124    0.0000 C   0  0  0  0  0  0  0  0  0  0  0  0
   -1.8659   -1.4124    0.0000 C   0  0  0  0  0  0  0  0  0  0  0  0
   -1.4534   -0.6979    0.0000 C   0  0  0  0  0  0  0  0  0  0  0  0
   -1.8659    0.0165    0.0000 O   0  0  0  0  0  0  0  0  0  0  0  0
   -0.6284   -0.6979    0.0000 C   0  0  0  0  0  0  0  0  0  0  0  0
   -0.1435   -1.3654    0.0000 C   0  0  0  0  0  0  0  0  0  0  0  0
    0.6411   -1.1104    0.0000 C   0  0  0  0  0  0  0  0  0  0  0  0
    0.6411   -0.2854    0.0000 C   0  0  0  0  0  0  0  0  0  0  0  0
    1.3556    0.1271    0.0000 C   0  0  0  0  0  0  0  0  0  0  0  0
    2.0701   -0.2854    0.0000 C   0  0  0  0  0  0  0  0  0  0  0  0
    2.0701   -1.1104    0.0000 C   0  0  0  0  0  0  0  0  0  0  0  0
    1.3556   -1.5229    0.0000 C   0  0  0  0  0  0  0  0  0  0  0  0
   -0.1435   -0.0305    0.0000 S   0  0  0  0  0  0  0  0  0  0  0  0
   -1.4534   -2.1269    0.0000 C   0  0  0  0  0  0  0  0  0  0  0  0
   -0.6284   -2.1269    0.0000 O   0  0  0  0  0  0  0  0  0  0  0  0
   -1.8659   -2.8414    0.0000 N   0  0  0  0  0  0  0  0  0  0  0  0
   -2.6909   -2.8414    0.0000 C   0  0  0  0  0  0  0  0  0  0  0  0
   -3.1034   -3.5558    0.0000 O   0  0  0  0  0  0  0  0  0  0  0  0
  1  2  1  0  0  0  0
  2  3  1  0  0  0  0
  3  4  2  0  0  0  0
  4  5  1  0  0  0  0
  5  6  2  0  0  0  0
  5  7  1  0  0  0  0
  7  8  2  0  0  0  0
  8  9  1  0  0  0  0
  9 10  2  0  0  0  0
 10 11  1  0  0  0  0
 11 12  1  0  0  0  0
 12 13  1  0  0  0  0
 13 14  1  0  0  0  0
  9 14  1  0  0  0  0
 10 15  1  0  0  0  0
  7 15  1  0  0  0  0
  4 16  1  0  0  0  0
 16 17  1  0  0  0  0
 16 18  2  0  0  0  0
 18 19  1  0  0  0  0
  2 19  1  0  0  0  0
 19 20  2  0  0  0  0
M  END
> <ID>
CPD_3905

$$$$
CPD_3910
  Mrv1822 09091914012D          

 27 31  0  0  0  0            999 V2000
    0.8517   -2.4835    0.0000 H   0  0  0  0  0  0  0  0  0  0  0  0
    0.8517   -1.6585    0.0000 C   0  0  2  0  0  0  0  0  0  0  0  0
    0.1163   -2.0322    0.0000 C   0  0  0  0  0  0  0  0  0  0  0  0
    0.5657   -1.2419    0.0000 C   0  0  1  0  0  0  0  0  0  0  0  0
   -0.2319   -1.0310    0.0000 H   0  0  0  0  0  0  0  0  0  0  0  0
    1.3012   -1.6156    0.0000 C   0  0  0  0  0  0  0  0  0  0  0  0
    2.0368   -1.2419    0.0000 C   0  0  1  0  0  0  0  0  0  0  0  0
    2.8344   -1.4529    0.0000 H   0  0  0  0  0  0  0  0  0  0  0  0
    1.5873   -2.0322    0.0000 C   0  0  0  0  0  0  0  0  0  0  0  0
    2.0368   -0.4945    0.0000 C   0  0  0  0  0  0  0  0  0  0  0  0
    2.8517   -0.6232    0.0000 O   0  0  0  0  0  0  0  0  0  0  0  0
    2.2911    0.2903    0.0000 C   0  0  0  0  0  0  0  0  0  0  0  0
    1.7386    0.9030    0.0000 C   0  0  0  0  0  0  0  0  0  0  0  0
    0.9318    0.7308    0.0000 O   0  0  0  0  0  0  0  0  0  0  0  0
    1.9929    1.6878    0.0000 C   0  0  0  0  0  0  0  0  0  0  0  0
    2.7773    1.9434    0.0000 C   0  0  0  0  0  0  0  0  0  0  0  0
    2.7767    2.7684    0.0000 C   0  0  0  0  0  0  0  0  0  0  0  0
    1.9918    3.0227    0.0000 C   0  0  0  0  0  0  0  0  0  0  0  0
    1.8197    3.8295    0.0000 C   0  0  0  0  0  0  0  0  0  0  0  0
    2.4323    4.3820    0.0000 C   0  0  0  0  0  0  0  0  0  0  0  0
    3.2172    4.1277    0.0000 C   0  0  0  0  0  0  0  0  0  0  0  0
    3.3893    3.3209    0.0000 C   0  0  0  0  0  0  0  0  0  0  0  0
    1.5075    2.3549    0.0000 S   0  0  0  0  0  0  0  0  0  0  0  0
    1.3012   -0.1208    0.0000 C   0  0  1  0  0  0  0  0  0  0  0  0
    1.9020    0.4446    0.0000 H   0  0  0  0  0  0  0  0  0  0  0  0
    0.8517   -0.9111    0.0000 C   0  0  0  0  0  0  0  0  0  0  0  0
    0.5657   -0.4945    0.0000 C   0  0  0  0  0  0  0  0  0  0  0  0
  2  1  1  6  0  0  0
  2  3  1  0  0  0  0
  4  3  1  0  0  0  0
  4  5  1  1  0  0  0
  4  6  1  0  0  0  0
  7  6  1  0  0  0  0
  7  8  1  1  0  0  0
  7  9  1  0  0  0  0
  2  9  1  0  0  0  0
 24 27  1  0  0  0  0
 10 11  1  0  0  0  0
 10 12  1  0  0  0  0
 12 13  1  0  0  0  0
 13 14  2  0  0  0  0
 13 15  1  0  0  0  0
 15 16  2  0  0  0  0
 16 17  1  0  0  0  0
 17 18  2  0  0  0  0
 18 19  1  0  0  0  0
 19 20  1  0  0  0  0
 20 21  1  0  0  0  0
 21 22  1  0  0  0  0
 17 22  1  0  0  0  0
 18 23  1  0  0  0  0
 15 23  1  0  0  0  0
 24 10  1  0  0  0  0
 24 25  1  6  0  0  0
 24 26  1  0  0  0  0
  2 26  1  0  0  0  0
  7 10  1  0  0  0  0
  4 27  1  0  0  0  0
M  END
> <ID>
CPD_3910

$$$$
CPD_3915
  Mrv1822 09091914012D          

 25 27  0  0  0  0            999 V2000
   -3.1334   -6.9699    0.0000 C   0  0  0  0  0  0  0  0  0  0  0  0
   -3.2196   -6.1494    0.0000 C   0  0  0  0  0  0  0  0  0  0  0  0
   -2.3992   -6.0632    0.0000 C   0  0  0  0  0  0  0  0  0  0  0  0
   -4.0401   -6.2356    0.0000 C   0  0  0  0  0  0  0  0  0  0  0  0
   -3.3059   -5.3289    0.0000 O   0  0  0  0  0  0  0  0  0  0  0  0
   -2.6384   -4.8440    0.0000 C   0  0  0  0  0  0  0  0  0  0  0  0
   -1.8848   -5.1796    0.0000 O   0  0  0  0  0  0  0  0  0  0  0  0
   -2.7247   -4.0235    0.0000 N   0  0  0  0  0  0  0  0  0  0  0  0
   -2.0572   -3.5386    0.0000 C   0  0  0  0  0  0  0  0  0  0  0  0
   -2.1435   -2.7181    0.0000 C   0  0  0  0  0  0  0  0  0  0  0  0
   -2.8579   -2.3056    0.0000 N   0  0  0  0  0  0  0  0  0  0  0  0
   -2.6864   -1.4986    0.0000 C   0  0  0  0  0  0  0  0  0  0  0  0
   -1.8659   -1.4124    0.0000 C   0  0  0  0  0  0  0  0  0  0  0  0
   -1.5304   -2.1661    0.0000 N   0  0  0  0  0  0  0  0  0  0  0  0
   -1.4534   -0.6979    0.0000 C   0  0  0  0  0  0  0  0  0  0  0  0
   -1.8659    0.0165    0.0000 O   0  0  0  0  0  0  0  0  0  0  0  0
   -0.6284   -0.6979    0.0000 C   0  0  0  0  0  0  0  0  0  0  0  0
   -0.1435   -1.3654    0.0000 C   0  0  0  0  0  0  0  0  0  0  0  0
    0.6411   -1.1104    0.0000 C   0  0  0  0  0  0  0  0  0  0  0  0
    0.6411   -0.2854    0.0000 C   0  0  0  0  0  0  0  0  0  0  0  0
    1.3556    0.1271    0.0000 C   0  0  0  0  0  0  0  0  0  0  0  0
    2.0701   -0.2854    0.0000 C   0  0  0  0  0  0  0  0  0  0  0  0
    2.0701   -1.1104    0.0000 C   0  0  0  0  0  0  0  0  0  0  0  0
    1.3556   -1.5229    0.0000 C   0  0  0  0  0  0  0  0  0  0  0  0
   -0.1435   -0.0305    0.0000 S   0  0  0  0  0  0  0  0  0  0  0  0
  1  2  1  0  0  0  0
  2  3  1  0  0  0  0
  2  4  1  0  0  0  0
  2  5  1  0  0  0  0
  5  6  1  0  0  0  0
  6  7  2  0  0  0  0
  6  8  1  0  0  0  0
  8  9  1  0  0  0  0
  9 10  1  0  0  0  0
 10 11  2  0  0  0  0
 11 12  1  0  0  0  0
 12 13  2  0  0  0  0
 13 14  1  0  0  0  0
 10 14  1  0  0  0  0
 13 15  1  0  0  0  0
 15 16  2  0  0  0  0
 15 17  1  0  0  0  0
 17 18  2  0  0  0  0
 18 19  1  0  0  0  0
 19 20  2  0  0  0  0
 20 21  1  0  0  0  0
 21 22  1  0  0  0  0
 22 23  1  0  0  0  0
 23 24  1  0  0  0  0
 19 24  1  0  0  0  0
 20 25  1  0  0  0  0
 17 25  1  0  0  0  0
M  END
> <ID>
CPD_3915

$$$$
CPD_3920
  Mrv1822 09091914012D          

 33 36  0  0  0  0            999 V2000
   -0.7145   -1.2375    0.0000 C   0  0  0  0  0  0  0  0  0  0  0  0
    0.0000   -1.6500    0.0000 O   0  0  0  0  0  0  0  0  0  0  0  0
    0.7145   -1.2375    0.0000 C   0  0  0  0  0  0  0  0  0  0  0  0
    0.7145   -0.4125    0.0000 C   0  0  0  0  0  0  0  0  0  0  0  0
    0.0000    0.0000    0.0000 F   0  0  0  0  0  0  0  0  0  0  0  0
    1.4289    0.0000    0.0000 C   0  0  0  0  0  0  0  0  0  0  0  0
    2.1434   -0.4125    0.0000 C   0  0  0  0  0  0  0  0  0  0  0  0
    2.8579    0.0000    0.0000 N   0  0  0  0  0  0  0  0  0  0  0  0
    3.5724   -0.4125    0.0000 C   0  0  0  0  0  0  0  0  0  0  0  0
    3.5724   -1.2375    0.0000 C   0  0  0  0  0  0  0  0  0  0  0  0
    4.2868   -1.6500    0.0000 C   0  0  0  0  0  0  0  0  0  0  0  0
    5.0013   -1.2375    0.0000 O   0  0  0  0  0  0  0  0  0  0  0  0
    4.2868   -2.4750    0.0000 C   0  0  0  0  0  0  0  0  0  0  0  0
    4.9543   -2.9599    0.0000 C   0  0  0  0  0  0  0  0  0  0  0  0
    5.7389   -2.7050    0.0000 N   0  0  0  0  0  0  0  0  0  0  0  0
    6.3520   -3.2570    0.0000 C   0  0  0  0  0  0  0  0  0  0  0  0
    6.1805   -4.0640    0.0000 O   0  0  0  0  0  0  0  0  0  0  0  0
    7.1366   -3.0021    0.0000 O   0  0  0  0  0  0  0  0  0  0  0  0
    7.7497   -3.5541    0.0000 C   0  0  0  0  0  0  0  0  0  0  0  0
    8.3628   -4.1061    0.0000 C   0  0  0  0  0  0  0  0  0  0  0  0
    7.1977   -4.1672    0.0000 C   0  0  0  0  0  0  0  0  0  0  0  0
    8.3017   -2.9410    0.0000 C   0  0  0  0  0  0  0  0  0  0  0  0
    4.6993   -3.7445    0.0000 C   0  0  0  0  0  0  0  0  0  0  0  0
    5.1118   -4.4590    0.0000 C   0  0  0  0  0  0  0  0  0  0  0  0
    4.6993   -5.1735    0.0000 C   0  0  0  0  0  0  0  0  0  0  0  0
    3.8743   -5.1735    0.0000 C   0  0  0  0  0  0  0  0  0  0  0  0
    3.4618   -4.4590    0.0000 C   0  0  0  0  0  0  0  0  0  0  0  0
    3.8743   -3.7445    0.0000 C   0  0  0  0  0  0  0  0  0  0  0  0
    3.6194   -2.9599    0.0000 N   0  0  0  0  0  0  0  0  0  0  0  0
    2.8579   -1.6500    0.0000 C   0  0  0  0  0  0  0  0  0  0  0  0
    2.8579   -2.4750    0.0000 Cl  0  0  0  0  0  0  0  0  0  0  0  0
    2.1434   -1.2375    0.0000 C   0  0  0  0  0  0  0  0  0  0  0  0
    1.4289   -1.6500    0.0000 C   0  0  0  0  0  0  0  0  0  0  0  0
  1  2  1  0  0  0  0
  2  3  1  0  0  0  0
  3  4  2  0  0  0  0
  4  5  1  0  0  0  0
  4  6  1  0  0  0  0
  6  7  2  0  0  0  0
  7  8  1  0  0  0  0
  8  9  2  0  0  0  0
  9 10  1  0  0  0  0
 10 11  1  0  0  0  0
 11 12  2  0  0  0  0
 11 13  1  0  0  0  0
 13 14  2  0  0  0  0
 14 15  1  0  0  0  0
 15 16  1  0  0  0  0
 16 17  2  0  0  0  0
 16 18  1  0  0  0  0
 18 19  1  0  0  0  0
 19 20  1  0  0  0  0
 19 21  1  0  0  0  0
 19 22  1  0  0  0  0
 14 23  1  0  0  0  0
 23 24  2  0  0  0  0
 24 25  1  0  0  0  0
 25 26  2  0  0  0  0
 26 27  1  0  0  0  0
 27 28  2  0  0  0  0
 23 28  1  0  0  0  0
 28 29  1  0  0  0  0
 13 29  1  0  0  0  0
 10 30  2  0  0  0  0
 30 31  1  0  0  0  0
 30 32  1  0  0  0  0
  7 32  1  0  0  0  0
 32 33  2  0  0  0  0
  3 33  1  0  0  0  0
M  END
> <ID>
CPD_3920

$$$$
CPD_3925
  Mrv1822 09091914012D          

 32 35  0  0  0  0            999 V2000
   -1.4087    4.3034    0.0000 C   0  0  0  0  0  0  0  0  0  0  0  0
   -1.8212    3.5889    0.0000 C   0  0  0  0  0  0  0  0  0  0  0  0
   -1.4087    2.8744    0.0000 C   0  0  0  0  0  0  0  0  0  0  0  0
   -1.8212    2.1599    0.0000 N   0  0  0  0  0  0  0  0  0  0  0  0
   -2.6462    2.1599    0.0000 C   0  0  0  0  0  0  0  0  0  0  0  0
   -3.0587    2.8744    0.0000 C   0  0  0  0  0  0  0  0  0  0  0  0
   -2.6462    3.5889    0.0000 N   0  0  0  0  0  0  0  0  0  0  0  0
   -1.4087    1.4455    0.0000 C   0  0  0  0  0  0  0  0  0  0  0  0
   -0.5837    1.4455    0.0000 C   0  0  0  0  0  0  0  0  0  0  0  0
   -0.1712    0.7310    0.0000 C   0  0  0  0  0  0  0  0  0  0  0  0
   -0.5837    0.0165    0.0000 C   0  0  0  0  0  0  0  0  0  0  0  0
   -1.4087    0.0165    0.0000 C   0  0  0  0  0  0  0  0  0  0  0  0
   -1.8212    0.7310    0.0000 N   0  0  0  0  0  0  0  0  0  0  0  0
   -0.1712   -0.6979    0.0000 C   0  0  0  0  0  0  0  0  0  0  0  0
   -0.5837   -1.4124    0.0000 O   0  0  0  0  0  0  0  0  0  0  0  0
    0.6538   -0.6979    0.0000 C   0  0  0  0  0  0  0  0  0  0  0  0
    1.1387   -0.0305    0.0000 C   0  0  0  0  0  0  0  0  0  0  0  0
    0.8838    0.7541    0.0000 N   0  0  0  0  0  0  0  0  0  0  0  0
    1.4358    1.3672    0.0000 C   0  0  0  0  0  0  0  0  0  0  0  0
    1.1809    2.1518    0.0000 O   0  0  0  0  0  0  0  0  0  0  0  0
    2.2428    1.1957    0.0000 O   0  0  0  0  0  0  0  0  0  0  0  0
    2.7948    1.8088    0.0000 C   0  0  0  0  0  0  0  0  0  0  0  0
    3.3469    2.4219    0.0000 C   0  0  0  0  0  0  0  0  0  0  0  0
    3.4079    1.2567    0.0000 C   0  0  0  0  0  0  0  0  0  0  0  0
    2.1817    2.3608    0.0000 C   0  0  0  0  0  0  0  0  0  0  0  0
    1.9233   -0.2854    0.0000 C   0  0  0  0  0  0  0  0  0  0  0  0
    2.6378    0.1271    0.0000 C   0  0  0  0  0  0  0  0  0  0  0  0
    3.3523   -0.2854    0.0000 C   0  0  0  0  0  0  0  0  0  0  0  0
    3.3523   -1.1104    0.0000 C   0  0  0  0  0  0  0  0  0  0  0  0
    2.6378   -1.5229    0.0000 C   0  0  0  0  0  0  0  0  0  0  0  0
    1.9233   -1.1104    0.0000 C   0  0  0  0  0  0  0  0  0  0  0  0
    1.1387   -1.3654    0.0000 N   0  0  0  0  0  0  0  0  0  0  0  0
  1  2  1  0  0  0  0
  2  3  1  0  0  0  0
  3  4  1  0  0  0  0
  4  5  1  0  0  0  0
  5  6  1  0  0  0  0
  6  7  1  0  0  0  0
  2  7  1  0  0  0  0
  4  8  1  0  0  0  0
  8  9  2  0  0  0  0
  9 10  1  0  0  0  0
 10 11  2  0  0  0  0
 11 12  1  0  0  0  0
 12 13  2  0  0  0  0
  8 13  1  0  0  0  0
 11 14  1  0  0  0  0
 14 15  2  0  0  0  0
 14 16  1  0  0  0  0
 16 17  2  0  0  0  0
 17 18  1  0  0  0  0
 18 19  1  0  0  0  0
 19 20  2  0  0  0  0
 19 21  1  0  0  0  0
 21 22  1  0  0  0  0
 22 23  1  0  0  0  0
 22 24  1  0  0  0  0
 22 25  1  0  0  0  0
 17 26  1  0  0  0  0
 26 27  2  0  0  0  0
 27 28  1  0  0  0  0
 28 29  2  0  0  0  0
 29 30  1  0  0  0  0
 30 31  2  0  0  0  0
 26 31  1  0  0  0  0
 31 32  1  0  0  0  0
 16 32  1  0  0  0  0
M  END
> <ID>
CPD_3925

$$$$
CPD_3930
  Mrv1822 09091914012D          

 28 29  0  0  0  0            999 V2000
   -0.5837    1.6665    0.0000 C   0  0  0  0  0  0  0  0  0  0  0  0
    0.1308    1.2540    0.0000 C   0  0  0  0  0  0  0  0  0  0  0  0
    0.1308    0.4290    0.0000 O   0  0  0  0  0  0  0  0  0  0  0  0
   -0.5837    0.0165    0.0000 C   0  0  0  0  0  0  0  0  0  0  0  0
   -0.9962    0.7310    0.0000 F   0  0  0  0  0  0  0  0  0  0  0  0
   -0.1712   -0.6979    0.0000 C   0  0  0  0  0  0  0  0  0  0  0  0
   -0.5837   -1.4124    0.0000 O   0  0  0  0  0  0  0  0  0  0  0  0
    0.6538   -0.6979    0.0000 C   0  0  0  0  0  0  0  0  0  0  0  0
    1.1387   -0.0305    0.0000 C   0  0  0  0  0  0  0  0  0  0  0  0
    0.8838    0.7541    0.0000 N   0  0  0  0  0  0  0  0  0  0  0  0
    1.4358    1.3672    0.0000 C   0  0  0  0  0  0  0  0  0  0  0  0
    1.1809    2.1518    0.0000 O   0  0  0  0  0  0  0  0  0  0  0  0
    2.2428    1.1957    0.0000 O   0  0  0  0  0  0  0  0  0  0  0  0
    2.7948    1.8088    0.0000 C   0  0  0  0  0  0  0  0  0  0  0  0
    3.3469    2.4219    0.0000 C   0  0  0  0  0  0  0  0  0  0  0  0
    3.4079    1.2567    0.0000 C   0  0  0  0  0  0  0  0  0  0  0  0
    2.1817    2.3608    0.0000 C   0  0  0  0  0  0  0  0  0  0  0  0
    1.9233   -0.2854    0.0000 C   0  0  0  0  0  0  0  0  0  0  0  0
    2.6378    0.1271    0.0000 C   0  0  0  0  0  0  0  0  0  0  0  0
    3.3523   -0.2854    0.0000 C   0  0  0  0  0  0  0  0  0  0  0  0
    3.3523   -1.1104    0.0000 C   0  0  0  0  0  0  0  0  0  0  0  0
    2.6378   -1.5229    0.0000 C   0  0  0  0  0  0  0  0  0  0  0  0
    1.9233   -1.1104    0.0000 C   0  0  0  0  0  0  0  0  0  0  0  0
    1.1387   -1.3654    0.0000 N   0  0  0  0  0  0  0  0  0  0  0  0
   -1.2982   -0.3960    0.0000 C   0  0  0  0  0  0  0  0  0  0  0  0
   -2.0126   -0.8085    0.0000 F   0  0  0  0  0  0  0  0  0  0  0  0
   -1.7107    0.3185    0.0000 F   0  0  0  0  0  0  0  0  0  0  0  0
   -0.8857   -1.1104    0.0000 F   0  0  0  0  0  0  0  0  0  0  0  0
  1  2  1  0  0  0  0
  2  3  1  0  0  0  0
  3  4  1  0  0  0  0
  4  5  1  0  0  0  0
  4  6  1  0  0  0  0
  6  7  2  0  0  0  0
  6  8  1  0  0  0  0
  8  9  2  0  0  0  0
  9 10  1  0  0  0  0
 10 11  1  0  0  0  0
 11 12  2  0  0  0  0
 11 13  1  0  0  0  0
 13 14  1  0  0  0  0
 14 15  1  0  0  0  0
 14 16  1  0  0  0  0
 14 17  1  0  0  0  0
  9 18  1  0  0  0  0
 18 19  2  0  0  0  0
 19 20  1  0  0  0  0
 20 21  2  0  0  0  0
 21 22  1  0  0  0  0
 22 23  2  0  0  0  0
 18 23  1  0  0  0  0
 23 24  1  0  0  0  0
  8 24  1  0  0  0  0
  4 25  1  0  0  0  0
 25 26  1  0  0  0  0
 25 27  1  0  0  0  0
 25 28  1  0  0  0  0
M  END
> <ID>
CPD_3930

$$$$
CPD_3935
  Mrv1822 09091914012D          

 27 30  0  0  0  0            999 V2000
   -0.1712   -0.6979    0.0000 C   0  0  0  0  0  0  0  0  0  0  0  0
    0.6538   -0.6979    0.0000 C   0  0  0  0  0  0  0  0  0  0  0  0
    1.1387   -0.0305    0.0000 C   0  0  0  0  0  0  0  0  0  0  0  0
    0.8838    0.7541    0.0000 C   0  0  0  0  0  0  0  0  0  0  0  0
    0.6288    1.5387    0.0000 N   0  0  0  0  0  0  0  0  0  0  0  0
    1.9233   -0.2854    0.0000 C   0  0  0  0  0  0  0  0  0  0  0  0
    2.6378    0.1271    0.0000 C   0  0  0  0  0  0  0  0  0  0  0  0
    3.3523   -0.2854    0.0000 C   0  0  0  0  0  0  0  0  0  0  0  0
    3.3523   -1.1104    0.0000 C   0  0  0  0  0  0  0  0  0  0  0  0
    2.6378   -1.5229    0.0000 C   0  0  0  0  0  0  0  0  0  0  0  0
    1.9233   -1.1104    0.0000 C   0  0  0  0  0  0  0  0  0  0  0  0
    1.1387   -1.3654    0.0000 N   0  0  0  0  0  0  0  0  0  0  0  0
    0.8838   -2.1500    0.0000 C   0  0  0  0  0  0  0  0  0  0  0  0
    0.0768   -2.3215    0.0000 C   0  0  0  0  0  0  0  0  0  0  0  0
   -0.4752   -1.7084    0.0000 O   0  0  0  0  0  0  0  0  0  0  0  0
   -0.1781   -3.1062    0.0000 C   0  0  0  0  0  0  0  0  0  0  0  0
    0.3068   -3.7736    0.0000 C   0  0  0  0  0  0  0  0  0  0  0  0
   -0.1781   -4.4410    0.0000 C   0  0  0  0  0  0  0  0  0  0  0  0
   -0.9628   -4.1861    0.0000 C   0  0  0  0  0  0  0  0  0  0  0  0
   -0.9628   -3.3611    0.0000 S   0  0  0  0  0  0  0  0  0  0  0  0
   -1.6302   -4.6710    0.0000 C   0  0  0  0  0  0  0  0  0  0  0  0
   -1.6302   -5.4960    0.0000 C   0  0  0  0  0  0  0  0  0  0  0  0
   -2.4148   -5.7510    0.0000 C   0  0  0  0  0  0  0  0  0  0  0  0
   -2.6697   -6.5356    0.0000 C   0  0  0  0  0  0  0  0  0  0  0  0
   -2.1177   -7.1487    0.0000 N   0  0  0  0  0  0  0  0  0  0  0  0
   -2.8997   -5.0835    0.0000 N   0  0  0  0  0  0  0  0  0  0  0  0
   -2.4148   -4.4161    0.0000 N   0  0  0  0  0  0  0  0  0  0  0  0
  1  2  1  0  0  0  0
  2  3  2  0  0  0  0
  3  4  1  0  0  0  0
  4  5  3  0  0  0  0
  3  6  1  0  0  0  0
  6  7  2  0  0  0  0
  7  8  1  0  0  0  0
  8  9  2  0  0  0  0
  9 10  1  0  0  0  0
 10 11  2  0  0  0  0
  6 11  1  0  0  0  0
 11 12  1  0  0  0  0
  2 12  1  0  0  0  0
 12 13  1  0  0  0  0
 13 14  1  0  0  0  0
 14 15  2  0  0  0  0
 14 16  1  0  0  0  0
 16 17  2  0  0  0  0
 17 18  1  0  0  0  0
 18 19  2  0  0  0  0
 19 20  1  0  0  0  0
 16 20  1  0  0  0  0
 19 21  1  0  0  0  0
 21 22  2  0  0  0  0
 22 23  1  0  0  0  0
 23 24  1  0  0  0  0
 24 25  1  0  0  0  0
 23 26  2  0  0  0  0
 26 27  1  0  0  0  0
 21 27  1  0  0  0  0
M  END
> <ID>
CPD_3935

$$$$
CPD_3940
  Mrv1822 09091914012D          

 24 26  0  0  0  0            999 V2000
    3.1637   -1.6011    0.0000 C   0  0  0  0  0  0  0  0  0  0  0  0
    2.7512   -0.8866    0.0000 C   0  0  0  0  0  0  0  0  0  0  0  0
    2.3387   -0.1721    0.0000 N   0  0  0  0  0  0  0  0  0  0  0  0
    2.0367   -1.2991    0.0000 C   0  0  0  0  0  0  0  0  0  0  0  0
    1.3222   -0.8866    0.0000 O   0  0  0  0  0  0  0  0  0  0  0  0
    2.0367   -2.1241    0.0000 C   0  0  0  0  0  0  0  0  0  0  0  0
    2.7041   -2.6090    0.0000 C   0  0  0  0  0  0  0  0  0  0  0  0
    2.4492   -3.3937    0.0000 C   0  0  0  0  0  0  0  0  0  0  0  0
    1.6242   -3.3937    0.0000 C   0  0  0  0  0  0  0  0  0  0  0  0
    1.3693   -2.6090    0.0000 S   0  0  0  0  0  0  0  0  0  0  0  0
    1.1393   -4.0611    0.0000 C   0  0  0  0  0  0  0  0  0  0  0  0
    1.3942   -4.8457    0.0000 C   0  0  0  0  0  0  0  0  0  0  0  0
    0.7268   -5.3306    0.0000 C   0  0  0  0  0  0  0  0  0  0  0  0
    0.7268   -6.1556    0.0000 C   0  0  0  0  0  0  0  0  0  0  0  0
    0.0123   -6.5681    0.0000 N   0  0  0  0  0  0  0  0  0  0  0  0
    0.0593   -4.8457    0.0000 N   0  0  0  0  0  0  0  0  0  0  0  0
    0.3143   -4.0611    0.0000 N   0  0  0  0  0  0  0  0  0  0  0  0
    3.4656   -0.4741    0.0000 C   0  0  0  0  0  0  0  0  0  0  0  0
    3.4656    0.3509    0.0000 C   0  0  0  0  0  0  0  0  0  0  0  0
    4.1801    0.7634    0.0000 C   0  0  0  0  0  0  0  0  0  0  0  0
    4.8946    0.3509    0.0000 C   0  0  0  0  0  0  0  0  0  0  0  0
    5.6091    0.7634    0.0000 F   0  0  0  0  0  0  0  0  0  0  0  0
    4.8946   -0.4741    0.0000 C   0  0  0  0  0  0  0  0  0  0  0  0
    4.1801   -0.8866    0.0000 C   0  0  0  0  0  0  0  0  0  0  0  0
  1  2  1  0  0  0  0
  2  3  1  0  0  0  0
  2  4  1  0  0  0  0
  4  5  2  0  0  0  0
  4  6  1  0  0  0  0
  6  7  2  0  0  0  0
  7  8  1  0  0  0  0
  8  9  2  0  0  0  0
  9 10  1  0  0  0  0
  6 10  1  0  0  0  0
  9 11  1  0  0  0  0
 11 12  2  0  0  0  0
 12 13  1  0  0  0  0
 13 14  1  0  0  0  0
 14 15  1  0  0  0  0
 13 16  2  0  0  0  0
 16 17  1  0  0  0  0
 11 17  1  0  0  0  0
  2 18  1  0  0  0  0
 18 19  2  0  0  0  0
 19 20  1  0  0  0  0
 20 21  2  0  0  0  0
 21 22  1  0  0  0  0
 21 23  1  0  0  0  0
 23 24  2  0  0  0  0
 18 24  1  0  0  0  0
M  END
> <ID>
CPD_3940

$$$$
CPD_3945
  Mrv1822 09091914012D          

 28 32  0  0  0  0            999 V2000
    1.6914    0.9726    0.0000 O   0  0  0  0  0  0  0  0  0  0  0  0
    1.5452    0.1607    0.0000 C   0  0  0  0  0  0  0  0  0  0  0  0
    0.7689   -0.1186    0.0000 C   0  0  0  0  0  0  0  0  0  0  0  0
    0.0867    0.3452    0.0000 C   0  0  0  0  0  0  0  0  0  0  0  0
   -0.5653   -0.1603    0.0000 C   0  0  0  0  0  0  0  0  0  0  0  0
   -0.2860   -0.9366    0.0000 C   0  0  0  0  0  0  0  0  0  0  0  0
    0.5386   -0.9108    0.0000 S   0  0  0  0  0  0  0  0  0  0  0  0
   -0.8186   -1.5666    0.0000 C   0  0  0  0  0  0  0  0  0  0  0  0
   -0.5393   -2.3429    0.0000 O   0  0  0  0  0  0  0  0  0  0  0  0
   -1.6305   -1.4204    0.0000 N   0  0  0  0  0  0  0  0  0  0  0  0
   -1.9099   -0.6441    0.0000 N   0  0  0  0  0  0  0  0  0  0  0  0
   -1.3772   -0.0141    0.0000 C   0  0  0  0  0  0  0  0  0  0  0  0
   -1.6566    0.7622    0.0000 O   0  0  0  0  0  0  0  0  0  0  0  0
    2.1752   -0.3719    0.0000 C   0  0  0  0  0  0  0  0  0  0  0  0
    2.9765   -0.1753    0.0000 C   0  0  0  0  0  0  0  0  0  0  0  0
    3.3664    0.5517    0.0000 N   0  0  0  0  0  0  0  0  0  0  0  0
    4.1910    0.5775    0.0000 C   0  0  0  0  0  0  0  0  0  0  0  0
    4.5810    1.3045    0.0000 O   0  0  0  0  0  0  0  0  0  0  0  0
    4.6256   -0.1238    0.0000 C   0  0  0  0  0  0  0  0  0  0  0  0
    5.4502   -0.0980    0.0000 C   0  0  0  0  0  0  0  0  0  0  0  0
    5.8849   -0.7992    0.0000 C   0  0  0  0  0  0  0  0  0  0  0  0
    5.4949   -1.5262    0.0000 C   0  0  0  0  0  0  0  0  0  0  0  0
    4.6703   -1.5520    0.0000 C   0  0  0  0  0  0  0  0  0  0  0  0
    4.2357   -0.8508    0.0000 C   0  0  0  0  0  0  0  0  0  0  0  0
    3.4111   -0.8765    0.0000 N   0  0  0  0  0  0  0  0  0  0  0  0
    2.8784   -1.5066    0.0000 C   0  0  0  0  0  0  0  0  0  0  0  0
    3.0751   -2.3078    0.0000 S   0  0  0  0  0  0  0  0  0  0  0  0
    2.1147   -1.1947    0.0000 S   0  0  0  0  0  0  0  0  0  0  0  0
  1  2  2  0  0  0  0
  2  3  1  0  0  0  0
  3  4  2  0  0  0  0
  4  5  1  0  0  0  0
  5  6  2  0  0  0  0
  6  7  1  0  0  0  0
  3  7  1  0  0  0  0
  6  8  1  0  0  0  0
  8  9  2  0  0  0  0
  8 10  1  0  0  0  0
 10 11  1  0  0  0  0
 11 12  1  0  0  0  0
  5 12  1  0  0  0  0
 12 13  2  0  0  0  0
  2 14  1  0  0  0  0
 14 15  2  0  0  0  0
 15 16  1  0  0  0  0
 16 17  1  0  0  0  0
 17 18  2  0  0  0  0
 17 19  1  0  0  0  0
 19 20  2  0  0  0  0
 20 21  1  0  0  0  0
 21 22  2  0  0  0  0
 22 23  1  0  0  0  0
 23 24  2  0  0  0  0
 19 24  1  0  0  0  0
 24 25  1  0  0  0  0
 15 25  1  0  0  0  0
 25 26  1  0  0  0  0
 26 27  2  0  0  0  0
 26 28  1  0  0  0  0
 14 28  1  0  0  0  0
M  END
> <ID>
CPD_3945

$$$$
CPD_3950
  Mrv1822 09091914012D          

 33 36  0  0  0  0            999 V2000
   -7.6409   -1.4124    0.0000 C   0  0  0  0  0  0  0  0  0  0  0  0
   -6.8159   -1.4124    0.0000 C   0  0  0  0  0  0  0  0  0  0  0  0
   -6.4034   -0.6979    0.0000 N   0  0  0  0  0  0  0  0  0  0  0  0
   -6.8159    0.0165    0.0000 C   0  0  0  0  0  0  0  0  0  0  0  0
   -6.4034    0.7310    0.0000 C   0  0  0  0  0  0  0  0  0  0  0  0
   -5.5784   -0.6979    0.0000 C   0  0  0  0  0  0  0  0  0  0  0  0
   -5.1659    0.0165    0.0000 C   0  0  0  0  0  0  0  0  0  0  0  0
   -4.3409    0.0165    0.0000 C   0  0  0  0  0  0  0  0  0  0  0  0
   -3.9284    0.7310    0.0000 O   0  0  0  0  0  0  0  0  0  0  0  0
   -3.9284   -0.6979    0.0000 C   0  0  0  0  0  0  0  0  0  0  0  0
   -4.3409   -1.4124    0.0000 C   0  0  0  0  0  0  0  0  0  0  0  0
   -5.1659   -1.4124    0.0000 C   0  0  0  0  0  0  0  0  0  0  0  0
   -3.1034   -0.6979    0.0000 C   0  0  0  0  0  0  0  0  0  0  0  0
   -2.6909    0.0165    0.0000 O   0  0  0  0  0  0  0  0  0  0  0  0
   -2.6909   -1.4124    0.0000 C   0  0  0  0  0  0  0  0  0  0  0  0
   -3.1034   -2.1269    0.0000 C   0  0  0  0  0  0  0  0  0  0  0  0
   -2.6909   -2.8414    0.0000 C   0  0  0  0  0  0  0  0  0  0  0  0
   -1.8659   -2.8414    0.0000 C   0  0  0  0  0  0  0  0  0  0  0  0
   -1.4534   -2.1269    0.0000 C   0  0  0  0  0  0  0  0  0  0  0  0
   -1.8659   -1.4124    0.0000 C   0  0  0  0  0  0  0  0  0  0  0  0
   -1.4534   -0.6979    0.0000 C   0  0  0  0  0  0  0  0  0  0  0  0
   -1.8659    0.0165    0.0000 O   0  0  0  0  0  0  0  0  0  0  0  0
   -0.6284   -0.6979    0.0000 C   0  0  0  0  0  0  0  0  0  0  0  0
   -0.1435   -1.3654    0.0000 C   0  0  0  0  0  0  0  0  0  0  0  0
    0.6411   -1.1104    0.0000 C   0  0  0  0  0  0  0  0  0  0  0  0
    0.6411   -0.2854    0.0000 C   0  0  0  0  0  0  0  0  0  0  0  0
   -0.1435   -0.0305    0.0000 S   0  0  0  0  0  0  0  0  0  0  0  0
    1.3556    0.1271    0.0000 C   0  0  0  0  0  0  0  0  0  0  0  0
    1.3556    0.9521    0.0000 O   0  0  0  0  0  0  0  0  0  0  0  0
    2.0701   -0.2854    0.0000 N   0  0  0  0  0  0  0  0  0  0  0  0
    2.0701   -1.1104    0.0000 N   0  0  0  0  0  0  0  0  0  0  0  0
    1.3556   -1.5229    0.0000 C   0  0  0  0  0  0  0  0  0  0  0  0
    1.3556   -2.3479    0.0000 O   0  0  0  0  0  0  0  0  0  0  0  0
  1  2  1  0  0  0  0
  2  3  1  0  0  0  0
  3  4  1  0  0  0  0
  4  5  1  0  0  0  0
  3  6  1  0  0  0  0
  6  7  2  0  0  0  0
  7  8  1  0  0  0  0
  8  9  1  0  0  0  0
  8 10  2  0  0  0  0
 10 11  1  0  0  0  0
 11 12  2  0  0  0  0
  6 12  1  0  0  0  0
 10 13  1  0  0  0  0
 13 14  2  0  0  0  0
 13 15  1  0  0  0  0
 15 16  2  0  0  0  0
 16 17  1  0  0  0  0
 17 18  2  0  0  0  0
 18 19  1  0  0  0  0
 19 20  2  0  0  0  0
 15 20  1  0  0  0  0
 20 21  1  0  0  0  0
 21 22  2  0  0  0  0
 21 23  1  0  0  0  0
 23 24  2  0  0  0  0
 24 25  1  0  0  0  0
 25 26  2  0  0  0  0
 26 27  1  0  0  0  0
 23 27  1  0  0  0  0
 26 28  1  0  0  0  0
 28 29  2  0  0  0  0
 28 30  1  0  0  0  0
 30 31  1  0  0  0  0
 31 32  1  0  0  0  0
 25 32  1  0  0  0  0
 32 33  2  0  0  0  0
M  END
> <ID>
CPD_3950

$$$$
CPD_3955
  Mrv1822 09091914012D          

 21 23  0  0  0  0            999 V2000
   -3.9284   -0.6979    0.0000 C   0  0  0  0  0  0  0  0  0  0  0  0
   -3.1034   -0.6979    0.0000 S   0  0  0  0  0  0  0  0  0  0  0  0
   -2.6909   -1.4124    0.0000 C   0  0  0  0  0  0  0  0  0  0  0  0
   -1.8659   -1.4124    0.0000 C   0  0  0  0  0  0  0  0  0  0  0  0
   -1.4534   -2.1269    0.0000 C   0  0  0  0  0  0  0  0  0  0  0  0
   -1.8659   -2.8414    0.0000 C   0  0  0  0  0  0  0  0  0  0  0  0
   -2.6909   -2.8414    0.0000 C   0  0  0  0  0  0  0  0  0  0  0  0
   -3.1034   -2.1269    0.0000 C   0  0  0  0  0  0  0  0  0  0  0  0
   -1.4534   -0.6979    0.0000 C   0  0  0  0  0  0  0  0  0  0  0  0
   -1.8659    0.0165    0.0000 O   0  0  0  0  0  0  0  0  0  0  0  0
   -0.6284   -0.6979    0.0000 C   0  0  0  0  0  0  0  0  0  0  0  0
   -0.1435   -1.3654    0.0000 C   0  0  0  0  0  0  0  0  0  0  0  0
    0.6411   -1.1104    0.0000 C   0  0  0  0  0  0  0  0  0  0  0  0
    0.6411   -0.2854    0.0000 C   0  0  0  0  0  0  0  0  0  0  0  0
   -0.1435   -0.0305    0.0000 S   0  0  0  0  0  0  0  0  0  0  0  0
    1.3556    0.1271    0.0000 C   0  0  0  0  0  0  0  0  0  0  0  0
    1.3556    0.9521    0.0000 O   0  0  0  0  0  0  0  0  0  0  0  0
    2.0701   -0.2854    0.0000 N   0  0  0  0  0  0  0  0  0  0  0  0
    2.0701   -1.1104    0.0000 N   0  0  0  0  0  0  0  0  0  0  0  0
    1.3556   -1.5229    0.0000 C   0  0  0  0  0  0  0  0  0  0  0  0
    1.3556   -2.3479    0.0000 O   0  0  0  0  0  0  0  0  0  0  0  0
  1  2  1  0  0  0  0
  2  3  1  0  0  0  0
  3  4  2  0  0  0  0
  4  5  1  0  0  0  0
  5  6  2  0  0  0  0
  6  7  1  0  0  0  0
  7  8  2  0  0  0  0
  3  8  1  0  0  0  0
  4  9  1  0  0  0  0
  9 10  2  0  0  0  0
  9 11  1  0  0  0  0
 11 12  2  0  0  0  0
 12 13  1  0  0  0  0
 13 14  2  0  0  0  0
 14 15  1  0  0  0  0
 11 15  1  0  0  0  0
 14 16  1  0  0  0  0
 16 17  2  0  0  0  0
 16 18  1  0  0  0  0
 18 19  1  0  0  0  0
 19 20  1  0  0  0  0
 13 20  1  0  0  0  0
 20 21  2  0  0  0  0
M  END
> <ID>
CPD_3955

$$$$
CPD_3960
  Mrv1822 09091914012D          

 30 33  0  0  0  0            999 V2000
   -3.6172   -8.0199    0.0000 C   0  0  0  0  0  0  0  0  0  0  0  0
   -3.7035   -7.1994    0.0000 C   0  0  0  0  0  0  0  0  0  0  0  0
   -4.4571   -6.8639    0.0000 C   0  0  0  0  0  0  0  0  0  0  0  0
   -4.5434   -6.0434    0.0000 C   0  0  0  0  0  0  0  0  0  0  0  0
   -3.8759   -5.5585    0.0000 C   0  0  0  0  0  0  0  0  0  0  0  0
   -3.9622   -4.7380    0.0000 N   0  0  0  0  0  0  0  0  0  0  0  0
   -3.2947   -4.2531    0.0000 C   0  0  0  0  0  0  0  0  0  0  0  0
   -2.5411   -4.5886    0.0000 O   0  0  0  0  0  0  0  0  0  0  0  0
   -3.3810   -3.4326    0.0000 C   0  0  0  0  0  0  0  0  0  0  0  0
   -4.0954   -3.0201    0.0000 N   0  0  0  0  0  0  0  0  0  0  0  0
   -3.9239   -2.2131    0.0000 N   0  0  0  0  0  0  0  0  0  0  0  0
   -3.1034   -2.1269    0.0000 C   0  0  0  0  0  0  0  0  0  0  0  0
   -2.6909   -1.4124    0.0000 C   0  0  0  0  0  0  0  0  0  0  0  0
   -1.8659   -1.4124    0.0000 C   0  0  0  0  0  0  0  0  0  0  0  0
   -1.4534   -0.6979    0.0000 C   0  0  0  0  0  0  0  0  0  0  0  0
   -1.8659    0.0165    0.0000 O   0  0  0  0  0  0  0  0  0  0  0  0
   -0.6284   -0.6979    0.0000 C   0  0  0  0  0  0  0  0  0  0  0  0
   -0.1435   -1.3654    0.0000 C   0  0  0  0  0  0  0  0  0  0  0  0
    0.6411   -1.1104    0.0000 C   0  0  0  0  0  0  0  0  0  0  0  0
    0.6411   -0.2854    0.0000 C   0  0  0  0  0  0  0  0  0  0  0  0
   -0.1435   -0.0305    0.0000 S   0  0  0  0  0  0  0  0  0  0  0  0
    1.3556    0.1271    0.0000 C   0  0  0  0  0  0  0  0  0  0  0  0
    1.3556    0.9521    0.0000 O   0  0  0  0  0  0  0  0  0  0  0  0
    2.0701   -0.2854    0.0000 N   0  0  0  0  0  0  0  0  0  0  0  0
    2.0701   -1.1104    0.0000 N   0  0  0  0  0  0  0  0  0  0  0  0
    1.3556   -1.5229    0.0000 C   0  0  0  0  0  0  0  0  0  0  0  0
    1.3556   -2.3479    0.0000 O   0  0  0  0  0  0  0  0  0  0  0  0
   -2.7679   -2.8806    0.0000 S   0  0  0  0  0  0  0  0  0  0  0  0
   -3.1223   -5.8940    0.0000 C   0  0  0  0  0  0  0  0  0  0  0  0
   -3.0360   -6.7145    0.0000 C   0  0  0  0  0  0  0  0  0  0  0  0
  1  2  1  0  0  0  0
  2  3  2  0  0  0  0
  3  4  1  0  0  0  0
  4  5  2  0  0  0  0
  5  6  1  0  0  0  0
  6  7  1  0  0  0  0
  7  8  2  0  0  0  0
  7  9  1  0  0  0  0
  9 10  2  0  0  0  0
 10 11  1  0  0  0  0
 11 12  2  0  0  0  0
 12 13  1  0  0  0  0
 13 14  1  0  0  0  0
 14 15  1  0  0  0  0
 15 16  2  0  0  0  0
 15 17  1  0  0  0  0
 17 18  2  0  0  0  0
 18 19  1  0  0  0  0
 19 20  2  0  0  0  0
 20 21  1  0  0  0  0
 17 21  1  0  0  0  0
 20 22  1  0  0  0  0
 22 23  2  0  0  0  0
 22 24  1  0  0  0  0
 24 25  1  0  0  0  0
 25 26  1  0  0  0  0
 19 26  1  0  0  0  0
 26 27  2  0  0  0  0
 12 28  1  0  0  0  0
  9 28  1  0  0  0  0
  5 29  1  0  0  0  0
 29 30  2  0  0  0  0
  2 30  1  0  0  0  0
M  END
> <ID>
CPD_3960

$$$$
CPD_3965
  Mrv1822 09091914012D          

 29 31  0  0  0  0            999 V2000
   -2.5256   -7.8956    0.0000 C   0  0  0  0  0  0  0  0  0  0  0  0
   -2.5256   -7.0706    0.0000 C   0  0  0  0  0  0  0  0  0  0  0  0
   -1.8111   -6.6581    0.0000 C   0  0  0  0  0  0  0  0  0  0  0  0
   -1.8111   -5.8331    0.0000 C   0  0  0  0  0  0  0  0  0  0  0  0
   -1.0966   -5.4206    0.0000 C   0  0  0  0  0  0  0  0  0  0  0  0
   -1.0966   -4.5956    0.0000 C   0  0  0  0  0  0  0  0  0  0  0  0
   -0.3822   -4.1831    0.0000 C   0  0  0  0  0  0  0  0  0  0  0  0
    0.3323   -4.5956    0.0000 C   0  0  0  0  0  0  0  0  0  0  0  0
    0.3323   -5.4206    0.0000 C   0  0  0  0  0  0  0  0  0  0  0  0
   -0.3822   -5.8331    0.0000 C   0  0  0  0  0  0  0  0  0  0  0  0
    1.0468   -4.1831    0.0000 C   0  0  0  0  0  0  0  0  0  0  0  0
    1.0468   -3.3581    0.0000 O   0  0  0  0  0  0  0  0  0  0  0  0
    1.7613   -4.5956    0.0000 C   0  0  0  0  0  0  0  0  0  0  0  0
    2.4757   -4.1831    0.0000 C   0  0  0  0  0  0  0  0  0  0  0  0
    3.1902   -4.5956    0.0000 C   0  0  0  0  0  0  0  0  0  0  0  0
    3.1902   -5.4206    0.0000 O   0  0  0  0  0  0  0  0  0  0  0  0
    3.9047   -4.1831    0.0000 C   0  0  0  0  0  0  0  0  0  0  0  0
    3.9909   -3.3626    0.0000 C   0  0  0  0  0  0  0  0  0  0  0  0
    4.7979   -3.1911    0.0000 C   0  0  0  0  0  0  0  0  0  0  0  0
    5.2104   -3.9056    0.0000 C   0  0  0  0  0  0  0  0  0  0  0  0
    4.6583   -4.5187    0.0000 O   0  0  0  0  0  0  0  0  0  0  0  0
    6.0309   -3.9918    0.0000 C   0  0  0  0  0  0  0  0  0  0  0  0
    6.5158   -3.3244    0.0000 C   0  0  0  0  0  0  0  0  0  0  0  0
    7.3363   -3.4106    0.0000 C   0  0  0  0  0  0  0  0  0  0  0  0
    7.8212   -2.7432    0.0000 O   0  0  0  0  0  0  0  0  0  0  0  0
    7.6718   -4.1643    0.0000 C   0  0  0  0  0  0  0  0  0  0  0  0
    7.1869   -4.8317    0.0000 C   0  0  0  0  0  0  0  0  0  0  0  0
    7.5225   -5.5854    0.0000 O   0  0  0  0  0  0  0  0  0  0  0  0
    6.3664   -4.7455    0.0000 C   0  0  0  0  0  0  0  0  0  0  0  0
  1  2  1  0  0  0  0
  2  3  1  0  0  0  0
  3  4  1  0  0  0  0
  4  5  1  0  0  0  0
  5  6  2  0  0  0  0
  6  7  1  0  0  0  0
  7  8  2  0  0  0  0
  8  9  1  0  0  0  0
  9 10  2  0  0  0  0
  5 10  1  0  0  0  0
  8 11  1  0  0  0  0
 11 12  2  0  0  0  0
 11 13  1  0  0  0  0
 13 14  1  0  0  0  0
 14 15  1  0  0  0  0
 15 16  2  0  0  0  0
 15 17  1  0  0  0  0
 17 18  2  0  0  0  0
 18 19  1  0  0  0  0
 19 20  2  0  0  0  0
 20 21  1  0  0  0  0
 17 21  1  0  0  0  0
 20 22  1  0  0  0  0
 22 23  1  0  0  0  0
 23 24  1  0  0  0  0
 24 25  1  0  0  0  0
 24 26  2  0  0  0  0
 26 27  1  0  0  0  0
 27 28  2  0  0  0  0
 27 29  1  0  0  0  0
 22 29  1  0  0  0  0
M  END
> <ID>
CPD_3965

$$$$
CPD_3970
  Mrv1822 09091914012D          

 28 30  0  0  0  0            999 V2000
    0.0000    0.8250    0.0000 C   0  0  0  0  0  0  0  0  0  0  0  0
    0.7145    1.2375    0.0000 O   0  0  0  0  0  0  0  0  0  0  0  0
    1.4289    0.8250    0.0000 C   0  0  0  0  0  0  0  0  0  0  0  0
    2.1434    1.2375    0.0000 C   0  0  0  0  0  0  0  0  0  0  0  0
    2.8579    0.8250    0.0000 C   0  0  0  0  0  0  0  0  0  0  0  0
    3.5724    1.2375    0.0000 Cl  0  0  0  0  0  0  0  0  0  0  0  0
    2.8579   -0.0000    0.0000 C   0  0  0  0  0  0  0  0  0  0  0  0
    2.1434   -0.4125    0.0000 C   0  0  0  0  0  0  0  0  0  0  0  0
    1.4289   -0.0000    0.0000 C   0  0  0  0  0  0  0  0  0  0  0  0
    0.7145   -0.4125    0.0000 C   0  0  0  0  0  0  0  0  0  0  0  0
    0.0000    0.0000    0.0000 O   0  0  0  0  0  0  0  0  0  0  0  0
    0.7145   -1.2375    0.0000 C   0  0  0  0  0  0  0  0  0  0  0  0
    1.3819   -1.7224    0.0000 C   0  0  0  0  0  0  0  0  0  0  0  0
    1.1270   -2.5070    0.0000 C   0  0  0  0  0  0  0  0  0  0  0  0
    0.3020   -2.5070    0.0000 C   0  0  0  0  0  0  0  0  0  0  0  0
    0.0470   -1.7224    0.0000 O   0  0  0  0  0  0  0  0  0  0  0  0
   -0.1830   -3.1745    0.0000 C   0  0  0  0  0  0  0  0  0  0  0  0
    0.1526   -3.9282    0.0000 C   0  0  0  0  0  0  0  0  0  0  0  0
   -0.3323   -4.5956    0.0000 C   0  0  0  0  0  0  0  0  0  0  0  0
    0.0032   -5.3493    0.0000 O   0  0  0  0  0  0  0  0  0  0  0  0
   -1.1528   -4.5094    0.0000 C   0  0  0  0  0  0  0  0  0  0  0  0
   -1.4884   -3.7557    0.0000 C   0  0  0  0  0  0  0  0  0  0  0  0
   -2.3088   -3.6695    0.0000 O   0  0  0  0  0  0  0  0  0  0  0  0
   -1.0034   -3.0882    0.0000 C   0  0  0  0  0  0  0  0  0  0  0  0
    3.5724   -0.4125    0.0000 S   0  0  0  0  0  0  0  0  0  0  0  0
    4.2868   -0.8250    0.0000 N   0  0  0  0  0  0  0  0  0  0  0  0
    3.1599   -1.1270    0.0000 O   0  0  0  0  0  0  0  0  0  0  0  0
    3.9849    0.3020    0.0000 O   0  0  0  0  0  0  0  0  0  0  0  0
  1  2  1  0  0  0  0
  2  3  1  0  0  0  0
  3  4  2  0  0  0  0
  4  5  1  0  0  0  0
  5  6  1  0  0  0  0
  5  7  2  0  0  0  0
  7  8  1  0  0  0  0
  8  9  2  0  0  0  0
  3  9  1  0  0  0  0
  9 10  1  0  0  0  0
 10 11  2  0  0  0  0
 10 12  1  0  0  0  0
 12 13  2  0  0  0  0
 13 14  1  0  0  0  0
 14 15  2  0  0  0  0
 15 16  1  0  0  0  0
 12 16  1  0  0  0  0
 15 17  1  0  0  0  0
 17 18  1  0  0  0  0
 18 19  1  0  0  0  0
 19 20  1  0  0  0  0
 19 21  2  0  0  0  0
 21 22  1  0  0  0  0
 22 23  2  0  0  0  0
 22 24  1  0  0  0  0
 17 24  1  0  0  0  0
  7 25  1  0  0  0  0
 25 26  1  0  0  0  0
 25 27  2  0  0  0  0
 25 28  2  0  0  0  0
M  END
> <ID>
CPD_3970

$$$$
CPD_3975
  Mrv1822 09091914012D          

 27 30  0  0  1  0            999 V2000
    1.8722    0.6877    0.0000 O   0  0  0  0  0  0  0  0  0  0  0  0
    2.5867    0.2752    0.0000 C   0  0  0  0  0  0  0  0  0  0  0  0
    3.3012    0.6877    0.0000 C   0  0  0  0  0  0  0  0  0  0  0  0
    4.0156    0.2752    0.0000 C   0  0  0  0  0  0  0  0  0  0  0  0
    4.7301    0.6877    0.0000 O   0  0  0  0  0  0  0  0  0  0  0  0
    4.0156   -0.5498    0.0000 C   0  0  0  0  0  0  0  0  0  0  0  0
    3.3012   -0.9623    0.0000 C   0  0  0  0  0  0  0  0  0  0  0  0
    2.5867   -0.5498    0.0000 C   0  0  0  0  0  0  0  0  0  0  0  0
    3.3012   -1.7873    0.0000 C   0  0  0  0  0  0  0  0  0  0  0  0
    3.9686   -2.2722    0.0000 C   0  0  0  0  0  0  0  0  0  0  0  0
    3.7137   -3.0569    0.0000 C   0  0  0  0  0  0  0  0  0  0  0  0
    2.8887   -3.0569    0.0000 C   0  0  0  0  0  0  0  0  0  0  0  0
    2.6337   -2.2722    0.0000 O   0  0  0  0  0  0  0  0  0  0  0  0
    2.4037   -3.7243    0.0000 C   0  0  0  0  0  0  0  0  0  0  0  0
    1.5833   -3.6381    0.0000 O   0  0  0  0  0  0  0  0  0  0  0  0
    2.7393   -4.4780    0.0000 C   0  0  1  0  0  0  0  0  0  0  0  0
    3.5463   -4.6495    0.0000 C   0  0  0  0  0  0  0  0  0  0  0  0
    3.6325   -5.4700    0.0000 C   0  0  0  0  0  0  0  0  0  0  0  0
    2.8788   -5.8055    0.0000 N   0  0  0  0  0  0  0  0  0  0  0  0
    2.3268   -5.1924    0.0000 C   0  0  0  0  0  0  0  0  0  0  0  0
    1.5063   -5.2787    0.0000 C   0  0  0  0  0  0  0  0  0  0  0  0
    1.1708   -6.0324    0.0000 C   0  0  0  0  0  0  0  0  0  0  0  0
    0.3503   -6.1186    0.0000 C   0  0  0  0  0  0  0  0  0  0  0  0
   -0.1347   -5.4512    0.0000 C   0  0  0  0  0  0  0  0  0  0  0  0
   -0.9551   -5.5374    0.0000 Cl  0  0  0  0  0  0  0  0  0  0  0  0
    0.2009   -4.6975    0.0000 C   0  0  0  0  0  0  0  0  0  0  0  0
    1.0214   -4.6112    0.0000 C   0  0  0  0  0  0  0  0  0  0  0  0
  1  2  1  0  0  0  0
  2  3  2  0  0  0  0
  3  4  1  0  0  0  0
  4  5  2  0  0  0  0
  4  6  1  0  0  0  0
  6  7  1  0  0  0  0
  7  8  1  0  0  0  0
  2  8  1  0  0  0  0
  7  9  1  0  0  0  0
  9 10  2  0  0  0  0
 10 11  1  0  0  0  0
 11 12  2  0  0  0  0
 12 13  1  0  0  0  0
  9 13  1  0  0  0  0
 12 14  1  0  0  0  0
 14 15  2  0  0  0  0
 16 14  1  1  0  0  0
 16 17  1  0  0  0  0
 17 18  1  0  0  0  0
 18 19  1  0  0  0  0
 19 20  1  0  0  0  0
 16 20  1  0  0  0  0
 20 21  1  0  0  0  0
 21 22  2  0  0  0  0
 22 23  1  0  0  0  0
 23 24  2  0  0  0  0
 24 25  1  0  0  0  0
 24 26  1  0  0  0  0
 26 27  2  0  0  0  0
 21 27  1  0  0  0  0
M  END
> <ID>
CPD_3975

$$$$
CPD_3980
  Mrv1822 09091914012D          

 30 34  0  0  0  0            999 V2000
    5.0467   -0.2477    0.0000 O   0  0  0  0  0  0  0  0  0  0  0  0
    4.7112   -1.0014    0.0000 C   0  0  0  0  0  0  0  0  0  0  0  0
    5.1961   -1.6688    0.0000 C   0  0  0  0  0  0  0  0  0  0  0  0
    4.8605   -2.4225    0.0000 C   0  0  0  0  0  0  0  0  0  0  0  0
    5.3455   -3.0899    0.0000 O   0  0  0  0  0  0  0  0  0  0  0  0
    4.0401   -2.5087    0.0000 C   0  0  0  0  0  0  0  0  0  0  0  0
    3.5551   -1.8413    0.0000 C   0  0  0  0  0  0  0  0  0  0  0  0
    3.8907   -1.0876    0.0000 C   0  0  0  0  0  0  0  0  0  0  0  0
    2.7346   -1.9275    0.0000 C   0  0  0  0  0  0  0  0  0  0  0  0
    2.3221   -2.6420    0.0000 C   0  0  0  0  0  0  0  0  0  0  0  0
    1.5152   -2.4705    0.0000 C   0  0  0  0  0  0  0  0  0  0  0  0
    1.4289   -1.6500    0.0000 C   0  0  0  0  0  0  0  0  0  0  0  0
    2.1826   -1.3144    0.0000 O   0  0  0  0  0  0  0  0  0  0  0  0
    0.7145   -1.2375    0.0000 C   0  0  0  0  0  0  0  0  0  0  0  0
    0.0000   -1.6500    0.0000 O   0  0  0  0  0  0  0  0  0  0  0  0
    0.7145   -0.4125    0.0000 C   0  0  0  0  0  0  0  0  0  0  0  0
   -0.0000   -0.0000    0.0000 C   0  0  0  0  0  0  0  0  0  0  0  0
   -0.0000    0.8250    0.0000 C   0  0  0  0  0  0  0  0  0  0  0  0
   -0.7846    1.0799    0.0000 C   0  0  0  0  0  0  0  0  0  0  0  0
   -1.2695    0.4125    0.0000 N   0  0  0  0  0  0  0  0  0  0  0  0
   -2.0945    0.4125    0.0000 C   0  0  0  0  0  0  0  0  0  0  0  0
   -2.5795   -0.2549    0.0000 C   0  0  0  0  0  0  0  0  0  0  0  0
   -3.3641    0.0000    0.0000 C   0  0  0  0  0  0  0  0  0  0  0  0
   -3.3641    0.8250    0.0000 C   0  0  0  0  0  0  0  0  0  0  0  0
   -2.5795    1.0799    0.0000 C   0  0  0  0  0  0  0  0  0  0  0  0
   -0.7846   -0.2549    0.0000 C   0  0  0  0  0  0  0  0  0  0  0  0
   -1.0396   -1.0396    0.0000 O   0  0  0  0  0  0  0  0  0  0  0  0
    0.7145    1.2375    0.0000 C   0  0  0  0  0  0  0  0  0  0  0  0
    1.4289    0.8250    0.0000 C   0  0  0  0  0  0  0  0  0  0  0  0
    1.4289    0.0000    0.0000 C   0  0  0  0  0  0  0  0  0  0  0  0
  1  2  1  0  0  0  0
  2  3  2  0  0  0  0
  3  4  1  0  0  0  0
  4  5  2  0  0  0  0
  4  6  1  0  0  0  0
  6  7  1  0  0  0  0
  7  8  1  0  0  0  0
  2  8  1  0  0  0  0
  7  9  1  0  0  0  0
  9 10  2  0  0  0  0
 10 11  1  0  0  0  0
 11 12  2  0  0  0  0
 12 13  1  0  0  0  0
  9 13  1  0  0  0  0
 12 14  1  0  0  0  0
 14 15  2  0  0  0  0
 14 16  1  0  0  0  0
 16 17  2  0  0  0  0
 17 18  1  0  0  0  0
 18 19  1  0  0  0  0
 19 20  1  0  0  0  0
 20 21  1  0  0  0  0
 21 22  1  0  0  0  0
 22 23  1  0  0  0  0
 23 24  1  0  0  0  0
 24 25  1  0  0  0  0
 21 25  1  0  0  0  0
 20 26  1  0  0  0  0
 17 26  1  0  0  0  0
 26 27  2  0  0  0  0
 18 28  2  0  0  0  0
 28 29  1  0  0  0  0
 29 30  2  0  0  0  0
 16 30  1  0  0  0  0
M  END
> <ID>
CPD_3980

$$$$
CPD_3985
  Mrv1822 09091914012D          

 30 32  0  0  0  0            999 V2000
   -0.7750    2.1427    0.0000 C   0  0  0  0  0  0  0  0  0  0  0  0
   -0.8612    1.3222    0.0000 C   0  0  0  0  0  0  0  0  0  0  0  0
   -1.5757    0.9097    0.0000 C   0  0  0  0  0  0  0  0  0  0  0  0
   -2.3294    1.2453    0.0000 C   0  0  0  0  0  0  0  0  0  0  0  0
   -3.0831    1.5809    0.0000 N   0  0  0  0  0  0  0  0  0  0  0  0
   -1.4042    0.1028    0.0000 C   0  0  0  0  0  0  0  0  0  0  0  0
   -1.9562   -0.5103    0.0000 N   0  0  0  0  0  0  0  0  0  0  0  0
   -0.5837    0.0165    0.0000 C   0  0  0  0  0  0  0  0  0  0  0  0
   -0.2481    0.7702    0.0000 S   0  0  0  0  0  0  0  0  0  0  0  0
   -0.1712   -0.6979    0.0000 C   0  0  0  0  0  0  0  0  0  0  0  0
   -0.5837   -1.4124    0.0000 O   0  0  0  0  0  0  0  0  0  0  0  0
    0.6538   -0.6979    0.0000 C   0  0  0  0  0  0  0  0  0  0  0  0
    1.1387   -0.0305    0.0000 C   0  0  0  0  0  0  0  0  0  0  0  0
    0.8838    0.7541    0.0000 C   0  0  0  0  0  0  0  0  0  0  0  0
    1.4358    1.3672    0.0000 O   0  0  0  0  0  0  0  0  0  0  0  0
    1.9233   -0.2854    0.0000 C   0  0  0  0  0  0  0  0  0  0  0  0
    2.6378    0.1271    0.0000 C   0  0  0  0  0  0  0  0  0  0  0  0
    3.3523   -0.2854    0.0000 C   0  0  0  0  0  0  0  0  0  0  0  0
    4.0668    0.1271    0.0000 C   0  0  0  0  0  0  0  0  0  0  0  0
    3.3523   -1.1104    0.0000 C   0  0  0  0  0  0  0  0  0  0  0  0
    2.6378   -1.5229    0.0000 N   0  0  0  0  0  0  0  0  0  0  0  0
    1.9233   -1.1104    0.0000 C   0  0  0  0  0  0  0  0  0  0  0  0
    1.1387   -1.3654    0.0000 N   0  0  0  0  0  0  0  0  0  0  0  0
    0.8838   -2.1500    0.0000 C   0  0  0  0  0  0  0  0  0  0  0  0
    0.0768   -2.3215    0.0000 O   0  0  0  0  0  0  0  0  0  0  0  0
    1.4358   -2.7631    0.0000 O   0  0  0  0  0  0  0  0  0  0  0  0
    2.2428   -2.5916    0.0000 C   0  0  0  0  0  0  0  0  0  0  0  0
    2.4143   -3.3985    0.0000 C   0  0  0  0  0  0  0  0  0  0  0  0
    2.0713   -1.7846    0.0000 C   0  0  0  0  0  0  0  0  0  0  0  0
    3.0498   -2.4200    0.0000 C   0  0  0  0  0  0  0  0  0  0  0  0
  1  2  1  0  0  0  0
  2  3  2  0  0  0  0
  3  4  1  0  0  0  0
  4  5  3  0  0  0  0
  3  6  1  0  0  0  0
  6  7  1  0  0  0  0
  6  8  2  0  0  0  0
  8  9  1  0  0  0  0
  2  9  1  0  0  0  0
  8 10  1  0  0  0  0
 10 11  2  0  0  0  0
 10 12  1  0  0  0  0
 12 13  2  0  0  0  0
 13 14  1  0  0  0  0
 14 15  1  0  0  0  0
 13 16  1  0  0  0  0
 16 17  2  0  0  0  0
 17 18  1  0  0  0  0
 18 19  1  0  0  0  0
 18 20  2  0  0  0  0
 20 21  1  0  0  0  0
 21 22  2  0  0  0  0
 16 22  1  0  0  0  0
 22 23  1  0  0  0  0
 12 23  1  0  0  0  0
 23 24  1  0  0  0  0
 24 25  2  0  0  0  0
 24 26  1  0  0  0  0
 26 27  1  0  0  0  0
 27 28  1  0  0  0  0
 27 29  1  0  0  0  0
 27 30  1  0  0  0  0
M  END
> <ID>
CPD_3985

$$$$
CPD_3990
  Mrv1822 09091914012D          

 40 44  0  0  0  0            999 V2000
   -0.7544    0.1488    0.0000 C   0  0  0  0  0  0  0  0  0  0  0  0
   -1.4688   -0.2637    0.0000 C   0  0  0  0  0  0  0  0  0  0  0  0
   -1.4688   -1.0887    0.0000 C   0  0  0  0  0  0  0  0  0  0  0  0
   -2.1833   -1.5012    0.0000 N   0  0  0  0  0  0  0  0  0  0  0  0
   -2.8978   -1.0887    0.0000 C   0  0  0  0  0  0  0  0  0  0  0  0
   -3.6824   -1.3436    0.0000 N   0  0  0  0  0  0  0  0  0  0  0  0
   -3.9373   -2.1282    0.0000 C   0  0  0  0  0  0  0  0  0  0  0  0
   -4.7443   -2.2998    0.0000 O   0  0  0  0  0  0  0  0  0  0  0  0
   -3.3853   -2.7413    0.0000 O   0  0  0  0  0  0  0  0  0  0  0  0
   -3.6402   -3.5259    0.0000 C   0  0  0  0  0  0  0  0  0  0  0  0
   -4.4249   -3.2710    0.0000 C   0  0  0  0  0  0  0  0  0  0  0  0
   -2.8556   -3.7809    0.0000 C   0  0  0  0  0  0  0  0  0  0  0  0
   -3.8952   -4.3106    0.0000 C   0  0  0  0  0  0  0  0  0  0  0  0
   -4.1673   -0.6762    0.0000 C   0  0  0  0  0  0  0  0  0  0  0  0
   -4.9923   -0.6762    0.0000 C   0  0  0  0  0  0  0  0  0  0  0  0
   -5.4048    0.0383    0.0000 O   0  0  0  0  0  0  0  0  0  0  0  0
   -5.4048   -1.3906    0.0000 C   0  0  0  0  0  0  0  0  0  0  0  0
   -6.2298   -1.3906    0.0000 C   0  0  0  0  0  0  0  0  0  0  0  0
   -6.7147   -0.7232    0.0000 N   0  0  0  0  0  0  0  0  0  0  0  0
   -7.4994   -0.9781    0.0000 N   0  0  0  0  0  0  0  0  0  0  0  0
   -7.4994   -1.8031    0.0000 C   0  0  0  0  0  0  0  0  0  0  0  0
   -6.7147   -2.0581    0.0000 N   0  0  0  0  0  0  0  0  0  0  0  0
   -6.5432   -2.8650    0.0000 C   0  0  0  0  0  0  0  0  0  0  0  0
   -7.1563   -3.4171    0.0000 C   0  0  0  0  0  0  0  0  0  0  0  0
   -7.9409   -3.1621    0.0000 C   0  0  0  0  0  0  0  0  0  0  0  0
   -8.1124   -2.3552    0.0000 C   0  0  0  0  0  0  0  0  0  0  0  0
   -8.8971   -2.1002    0.0000 C   0  0  0  0  0  0  0  0  0  0  0  0
   -9.5645   -2.5852    0.0000 N   0  0  0  0  0  0  0  0  0  0  0  0
  -10.2319   -2.1002    0.0000 O   0  0  0  0  0  0  0  0  0  0  0  0
   -9.9770   -1.3156    0.0000 C   0  0  0  0  0  0  0  0  0  0  0  0
   -9.1520   -1.3156    0.0000 N   0  0  0  0  0  0  0  0  0  0  0  0
  -10.4619   -0.6482    0.0000 C   0  0  0  0  0  0  0  0  0  0  0  0
  -10.9469    0.0193    0.0000 C   0  0  0  0  0  0  0  0  0  0  0  0
   -9.7945   -0.1632    0.0000 C   0  0  0  0  0  0  0  0  0  0  0  0
  -11.1294   -1.1331    0.0000 C   0  0  0  0  0  0  0  0  0  0  0  0
   -3.6824   -0.0087    0.0000 C   0  0  0  0  0  0  0  0  0  0  0  0
   -3.9373    0.7759    0.0000 C   0  0  0  0  0  0  0  0  0  0  0  0
   -3.3853    1.3890    0.0000 O   0  0  0  0  0  0  0  0  0  0  0  0
   -2.8978   -0.2637    0.0000 C   0  0  0  0  0  0  0  0  0  0  0  0
   -2.1833    0.1488    0.0000 C   0  0  0  0  0  0  0  0  0  0  0  0
  1  2  1  0  0  0  0
  2  3  2  0  0  0  0
  3  4  1  0  0  0  0
  4  5  2  0  0  0  0
  5  6  1  0  0  0  0
  6  7  1  0  0  0  0
  7  8  2  0  0  0  0
  7  9  1  0  0  0  0
  9 10  1  0  0  0  0
 10 11  1  0  0  0  0
 10 12  1  0  0  0  0
 10 13  1  0  0  0  0
  6 14  1  0  0  0  0
 14 15  1  0  0  0  0
 15 16  2  0  0  0  0
 15 17  1  0  0  0  0
 17 18  1  0  0  0  0
 18 19  2  0  0  0  0
 19 20  1  0  0  0  0
 20 21  2  0  0  0  0
 21 22  1  0  0  0  0
 18 22  1  0  0  0  0
 22 23  1  0  0  0  0
 23 24  2  0  0  0  0
 24 25  1  0  0  0  0
 25 26  2  0  0  0  0
 21 26  1  0  0  0  0
 26 27  1  0  0  0  0
 27 28  2  0  0  0  0
 28 29  1  0  0  0  0
 29 30  1  0  0  0  0
 30 31  2  0  0  0  0
 27 31  1  0  0  0  0
 30 32  1  0  0  0  0
 32 33  1  0  0  0  0
 32 34  1  0  0  0  0
 32 35  1  0  0  0  0
 14 36  2  0  0  0  0
 36 37  1  0  0  0  0
 37 38  1  0  0  0  0
 36 39  1  0  0  0  0
  5 39  1  0  0  0  0
 39 40  2  0  0  0  0
  2 40  1  0  0  0  0
M  END
> <ID>
CPD_3990

$$$$
CPD_3995
  Mrv1822 09091914012D          

 33 36  0  0  0  0            999 V2000
   -0.1468    3.3847    0.0000 C   0  0  0  0  0  0  0  0  0  0  0  0
   -0.1468    2.5597    0.0000 O   0  0  0  0  0  0  0  0  0  0  0  0
   -0.8612    2.1472    0.0000 C   0  0  0  0  0  0  0  0  0  0  0  0
   -0.8612    1.3222    0.0000 C   0  0  0  0  0  0  0  0  0  0  0  0
   -0.2481    0.7702    0.0000 C   0  0  0  0  0  0  0  0  0  0  0  0
   -0.5837    0.0165    0.0000 C   0  0  0  0  0  0  0  0  0  0  0  0
   -1.4042    0.1028    0.0000 N   0  0  0  0  0  0  0  0  0  0  0  0
   -1.5757    0.9097    0.0000 C   0  0  0  0  0  0  0  0  0  0  0  0
   -2.2902    1.3222    0.0000 C   0  0  0  0  0  0  0  0  0  0  0  0
   -3.0047    0.9097    0.0000 Br  0  0  0  0  0  0  0  0  0  0  0  0
   -2.2902    2.1472    0.0000 C   0  0  0  0  0  0  0  0  0  0  0  0
   -1.5757    2.5597    0.0000 C   0  0  0  0  0  0  0  0  0  0  0  0
   -0.1712   -0.6979    0.0000 C   0  0  0  0  0  0  0  0  0  0  0  0
   -0.5837   -1.4124    0.0000 O   0  0  0  0  0  0  0  0  0  0  0  0
    0.6538   -0.6979    0.0000 C   0  0  0  0  0  0  0  0  0  0  0  0
    1.1387   -0.0305    0.0000 C   0  0  0  0  0  0  0  0  0  0  0  0
    0.8838    0.7541    0.0000 C   0  0  0  0  0  0  0  0  0  0  0  0
    1.4358    1.3672    0.0000 O   0  0  0  0  0  0  0  0  0  0  0  0
    1.9233   -0.2854    0.0000 C   0  0  0  0  0  0  0  0  0  0  0  0
    2.6378    0.1271    0.0000 C   0  0  0  0  0  0  0  0  0  0  0  0
    3.3523   -0.2854    0.0000 C   0  0  0  0  0  0  0  0  0  0  0  0
    4.0668    0.1271    0.0000 C   0  0  0  0  0  0  0  0  0  0  0  0
    3.3523   -1.1104    0.0000 C   0  0  0  0  0  0  0  0  0  0  0  0
    2.6378   -1.5229    0.0000 N   0  0  0  0  0  0  0  0  0  0  0  0
    1.9233   -1.1104    0.0000 C   0  0  0  0  0  0  0  0  0  0  0  0
    1.1387   -1.3654    0.0000 N   0  0  0  0  0  0  0  0  0  0  0  0
    0.8838   -2.1500    0.0000 C   0  0  0  0  0  0  0  0  0  0  0  0
    0.0768   -2.3215    0.0000 O   0  0  0  0  0  0  0  0  0  0  0  0
    1.4358   -2.7631    0.0000 O   0  0  0  0  0  0  0  0  0  0  0  0
    2.2428   -2.5916    0.0000 C   0  0  0  0  0  0  0  0  0  0  0  0
    2.4143   -3.3985    0.0000 C   0  0  0  0  0  0  0  0  0  0  0  0
    2.0713   -1.7846    0.0000 C   0  0  0  0  0  0  0  0  0  0  0  0
    3.0498   -2.4200    0.0000 C   0  0  0  0  0  0  0  0  0  0  0  0
  1  2  1  0  0  0  0
  2  3  1  0  0  0  0
  3  4  2  0  0  0  0
  4  5  1  0  0  0  0
  5  6  2  0  0  0  0
  6  7  1  0  0  0  0
  7  8  1  0  0  0  0
  4  8  1  0  0  0  0
  8  9  2  0  0  0  0
  9 10  1  0  0  0  0
  9 11  1  0  0  0  0
 11 12  2  0  0  0  0
  3 12  1  0  0  0  0
  6 13  1  0  0  0  0
 13 14  2  0  0  0  0
 13 15  1  0  0  0  0
 15 16  2  0  0  0  0
 16 17  1  0  0  0  0
 17 18  1  0  0  0  0
 16 19  1  0  0  0  0
 19 20  2  0  0  0  0
 20 21  1  0  0  0  0
 21 22  1  0  0  0  0
 21 23  2  0  0  0  0
 23 24  1  0  0  0  0
 24 25  2  0  0  0  0
 19 25  1  0  0  0  0
 25 26  1  0  0  0  0
 15 26  1  0  0  0  0
 26 27  1  0  0  0  0
 27 28  2  0  0  0  0
 27 29  1  0  0  0  0
 29 30  1  0  0  0  0
 30 31  1  0  0  0  0
 30 32  1  0  0  0  0
 30 33  1  0  0  0  0
M  END
> <ID>
CPD_3995

$$$$
CPD_4000
  Mrv1822 09091914012D          

 34 36  0  0  0  0            999 V2000
    1.1230   -5.0576    0.0000 C   0  0  0  0  0  0  0  0  0  0  0  0
    1.8374   -5.4701    0.0000 C   0  0  0  0  0  0  0  0  0  0  0  0
    2.5519   -5.0576    0.0000 N   0  0  0  0  0  0  0  0  0  0  0  0
    3.2664   -5.4701    0.0000 C   0  0  0  0  0  0  0  0  0  0  0  0
    3.2664   -6.2951    0.0000 O   0  0  0  0  0  0  0  0  0  0  0  0
    3.9809   -5.0576    0.0000 N   0  0  0  0  0  0  0  0  0  0  0  0
    3.9809   -4.2326    0.0000 C   0  0  0  0  0  0  0  0  0  0  0  0
    4.6483   -3.7476    0.0000 C   0  0  0  0  0  0  0  0  0  0  0  0
    4.3934   -2.9630    0.0000 S   0  0  0  0  0  0  0  0  0  0  0  0
    3.5684   -2.9630    0.0000 C   0  0  0  0  0  0  0  0  0  0  0  0
    3.0834   -2.2956    0.0000 S   0  0  0  0  0  0  0  0  0  0  0  0
    3.4190   -1.5419    0.0000 C   0  0  0  0  0  0  0  0  0  0  0  0
    3.3134   -3.7476    0.0000 N   0  0  0  0  0  0  0  0  0  0  0  0
    5.4329   -4.0026    0.0000 C   0  0  0  0  0  0  0  0  0  0  0  0
    5.6044   -4.8096    0.0000 O   0  0  0  0  0  0  0  0  0  0  0  0
    6.0460   -3.4506    0.0000 C   0  0  0  0  0  0  0  0  0  0  0  0
    5.9598   -2.6301    0.0000 C   0  0  0  0  0  0  0  0  0  0  0  0
    5.2453   -2.2176    0.0000 C   0  0  0  0  0  0  0  0  0  0  0  0
    5.2453   -1.3926    0.0000 O   0  0  0  0  0  0  0  0  0  0  0  0
    6.7135   -2.2945    0.0000 C   0  0  0  0  0  0  0  0  0  0  0  0
    6.9684   -1.5099    0.0000 C   0  0  0  0  0  0  0  0  0  0  0  0
    7.7754   -1.3384    0.0000 C   0  0  0  0  0  0  0  0  0  0  0  0
    8.0303   -0.5537    0.0000 C   0  0  0  0  0  0  0  0  0  0  0  0
    8.3274   -1.9515    0.0000 C   0  0  0  0  0  0  0  0  0  0  0  0
    8.0725   -2.7361    0.0000 N   0  0  0  0  0  0  0  0  0  0  0  0
    7.2655   -2.9076    0.0000 C   0  0  0  0  0  0  0  0  0  0  0  0
    6.8530   -3.6221    0.0000 N   0  0  0  0  0  0  0  0  0  0  0  0
    7.1885   -4.3758    0.0000 C   0  0  0  0  0  0  0  0  0  0  0  0
    6.7036   -5.0432    0.0000 O   0  0  0  0  0  0  0  0  0  0  0  0
    8.0090   -4.4620    0.0000 O   0  0  0  0  0  0  0  0  0  0  0  0
    8.4939   -3.7946    0.0000 C   0  0  0  0  0  0  0  0  0  0  0  0
    9.1614   -4.2795    0.0000 C   0  0  0  0  0  0  0  0  0  0  0  0
    7.8265   -3.3096    0.0000 C   0  0  0  0  0  0  0  0  0  0  0  0
    8.9789   -3.1271    0.0000 C   0  0  0  0  0  0  0  0  0  0  0  0
  1  2  1  0  0  0  0
  2  3  1  0  0  0  0
  3  4  1  0  0  0  0
  4  5  2  0  0  0  0
  4  6  1  0  0  0  0
  6  7  1  0  0  0  0
  7  8  2  0  0  0  0
  8  9  1  0  0  0  0
  9 10  1  0  0  0  0
 10 11  1  0  0  0  0
 11 12  1  0  0  0  0
 10 13  2  0  0  0  0
  7 13  1  0  0  0  0
  8 14  1  0  0  0  0
 14 15  2  0  0  0  0
 14 16  1  0  0  0  0
 16 17  2  0  0  0  0
 17 18  1  0  0  0  0
 18 19  1  0  0  0  0
 17 20  1  0  0  0  0
 20 21  2  0  0  0  0
 21 22  1  0  0  0  0
 22 23  1  0  0  0  0
 22 24  2  0  0  0  0
 24 25  1  0  0  0  0
 25 26  2  0  0  0  0
 20 26  1  0  0  0  0
 26 27  1  0  0  0  0
 16 27  1  0  0  0  0
 27 28  1  0  0  0  0
 28 29  2  0  0  0  0
 28 30  1  0  0  0  0
 30 31  1  0  0  0  0
 31 32  1  0  0  0  0
 31 33  1  0  0  0  0
 31 34  1  0  0  0  0
M  END
> <ID>
CPD_4000

$$$$
CPD_4005
  Mrv1822 09091914012D          

 23 24  0  0  0  0            999 V2000
   -1.4289   -2.4750    0.0000 C   0  0  0  0  0  0  0  0  0  0  0  0
   -0.7145   -2.0625    0.0000 C   0  0  0  0  0  0  0  0  0  0  0  0
    0.0000   -2.4750    0.0000 C   0  0  0  0  0  0  0  0  0  0  0  0
    0.7145   -2.0625    0.0000 C   0  0  0  0  0  0  0  0  0  0  0  0
    1.4289   -2.4750    0.0000 O   0  0  0  0  0  0  0  0  0  0  0  0
    2.1434   -2.0625    0.0000 C   0  0  0  0  0  0  0  0  0  0  0  0
    2.1434   -1.2375    0.0000 C   0  0  0  0  0  0  0  0  0  0  0  0
    2.8579   -0.8250    0.0000 C   0  0  0  0  0  0  0  0  0  0  0  0
    3.5724   -1.2375    0.0000 C   0  0  0  0  0  0  0  0  0  0  0  0
    4.2868   -0.8250    0.0000 Br  0  0  0  0  0  0  0  0  0  0  0  0
    3.5724   -2.0625    0.0000 C   0  0  0  0  0  0  0  0  0  0  0  0
    2.8579   -2.4750    0.0000 C   0  0  0  0  0  0  0  0  0  0  0  0
    2.8579   -3.3000    0.0000 C   0  0  0  0  0  0  0  0  0  0  0  0
    3.5724   -3.7125    0.0000 O   0  0  0  0  0  0  0  0  0  0  0  0
    2.1434   -3.7125    0.0000 C   0  0  0  0  0  0  0  0  0  0  0  0
    2.0572   -4.5330    0.0000 C   0  0  0  0  0  0  0  0  0  0  0  0
    1.2502   -4.7045    0.0000 C   0  0  0  0  0  0  0  0  0  0  0  0
    0.8377   -3.9900    0.0000 N   0  0  0  0  0  0  0  0  0  0  0  0
    1.3897   -3.3769    0.0000 N   0  0  0  0  0  0  0  0  0  0  0  0
    0.9146   -5.4582    0.0000 C   0  0  0  0  0  0  0  0  0  0  0  0
    0.0942   -5.5444    0.0000 O   0  0  0  0  0  0  0  0  0  0  0  0
    1.3996   -6.1256    0.0000 O   0  0  0  0  0  0  0  0  0  0  0  0
    2.2201   -6.0394    0.0000 C   0  0  0  0  0  0  0  0  0  0  0  0
  1  2  1  0  0  0  0
  2  3  1  0  0  0  0
  3  4  1  0  0  0  0
  4  5  1  0  0  0  0
  5  6  1  0  0  0  0
  6  7  2  0  0  0  0
  7  8  1  0  0  0  0
  8  9  2  0  0  0  0
  9 10  1  0  0  0  0
  9 11  1  0  0  0  0
 11 12  2  0  0  0  0
  6 12  1  0  0  0  0
 12 13  1  0  0  0  0
 13 14  2  0  0  0  0
 13 15  1  0  0  0  0
 15 16  2  0  0  0  0
 16 17  1  0  0  0  0
 17 18  2  0  0  0  0
 18 19  1  0  0  0  0
 15 19  1  0  0  0  0
 17 20  1  0  0  0  0
 20 21  2  0  0  0  0
 20 22  1  0  0  0  0
 22 23  1  0  0  0  0
M  END
> <ID>
CPD_4005

$$$$
CPD_4010
  Mrv1822 09091914012D          

 20 21  0  0  0  0            999 V2000
    0.7145   -0.4125    0.0000 C   0  0  0  0  0  0  0  0  0  0  0  0
    0.7145   -1.2375    0.0000 C   0  0  0  0  0  0  0  0  0  0  0  0
   -0.1105   -1.2375    0.0000 C   0  0  0  0  0  0  0  0  0  0  0  0
    1.5395   -1.2375    0.0000 C   0  0  0  0  0  0  0  0  0  0  0  0
    0.7145   -2.0625    0.0000 N   0  0  0  0  0  0  0  0  0  0  0  0
    1.3819   -2.5474    0.0000 C   0  0  0  0  0  0  0  0  0  0  0  0
    1.1270   -3.3320    0.0000 C   0  0  0  0  0  0  0  0  0  0  0  0
    0.3020   -3.3320    0.0000 N   0  0  0  0  0  0  0  0  0  0  0  0
    0.0470   -2.5474    0.0000 C   0  0  0  0  0  0  0  0  0  0  0  0
   -0.7376   -2.2925    0.0000 S   0  0  0  0  0  0  0  0  0  0  0  0
   -0.4827   -1.5079    0.0000 O   0  0  0  0  0  0  0  0  0  0  0  0
   -0.9925   -3.0771    0.0000 O   0  0  0  0  0  0  0  0  0  0  0  0
   -1.5222   -2.0375    0.0000 C   0  0  0  0  0  0  0  0  0  0  0  0
   -2.1353   -2.5896    0.0000 C   0  0  0  0  0  0  0  0  0  0  0  0
   -2.9199   -2.3346    0.0000 C   0  0  0  0  0  0  0  0  0  0  0  0
   -3.5330   -2.8867    0.0000 Cl  0  0  0  0  0  0  0  0  0  0  0  0
   -3.0915   -1.5277    0.0000 C   0  0  0  0  0  0  0  0  0  0  0  0
   -2.4784   -0.9756    0.0000 C   0  0  0  0  0  0  0  0  0  0  0  0
   -2.6499   -0.1687    0.0000 Cl  0  0  0  0  0  0  0  0  0  0  0  0
   -1.6937   -1.2306    0.0000 C   0  0  0  0  0  0  0  0  0  0  0  0
  1  2  1  0  0  0  0
  2  3  1  0  0  0  0
  2  4  1  0  0  0  0
  2  5  1  0  0  0  0
  5  6  1  0  0  0  0
  6  7  2  0  0  0  0
  7  8  1  0  0  0  0
  8  9  2  0  0  0  0
  5  9  1  0  0  0  0
  9 10  1  0  0  0  0
 10 11  2  0  0  0  0
 10 12  2  0  0  0  0
 10 13  1  0  0  0  0
 13 14  2  0  0  0  0
 14 15  1  0  0  0  0
 15 16  1  0  0  0  0
 15 17  2  0  0  0  0
 17 18  1  0  0  0  0
 18 19  1  0  0  0  0
 18 20  2  0  0  0  0
 13 20  1  0  0  0  0
M  END
> <ID>
CPD_4010

$$$$
CPD_4015
  Mrv1822 09091914012D          

 20 21  0  0  0  0            999 V2000
    2.2501    6.8277    0.0000 C   0  0  0  0  0  0  0  0  0  0  0  0
    2.2501    6.0027    0.0000 C   0  0  0  0  0  0  0  0  0  0  0  0
    2.9646    5.5902    0.0000 C   0  0  0  0  0  0  0  0  0  0  0  0
    1.5356    5.5902    0.0000 C   0  0  0  0  0  0  0  0  0  0  0  0
    1.5356    4.7652    0.0000 C   0  0  0  0  0  0  0  0  0  0  0  0
    0.8212    4.3527    0.0000 C   0  0  0  0  0  0  0  0  0  0  0  0
    0.1067    4.7652    0.0000 C   0  0  0  0  0  0  0  0  0  0  0  0
    0.1067    5.5902    0.0000 C   0  0  0  0  0  0  0  0  0  0  0  0
    0.8212    6.0027    0.0000 C   0  0  0  0  0  0  0  0  0  0  0  0
   -0.6078    4.3527    0.0000 C   0  0  0  0  0  0  0  0  0  0  0  0
   -1.3222    4.7652    0.0000 O   0  0  0  0  0  0  0  0  0  0  0  0
   -0.6078    3.5277    0.0000 C   0  0  0  0  0  0  0  0  0  0  0  0
    0.0597    3.0428    0.0000 N   0  0  0  0  0  0  0  0  0  0  0  0
   -0.1953    2.2581    0.0000 C   0  0  0  0  0  0  0  0  0  0  0  0
   -1.0203    2.2581    0.0000 C   0  0  0  0  0  0  0  0  0  0  0  0
   -1.2752    3.0428    0.0000 N   0  0  0  0  0  0  0  0  0  0  0  0
   -2.0598    3.2977    0.0000 C   0  0  0  0  0  0  0  0  0  0  0  0
   -2.8444    3.5526    0.0000 C   0  0  0  0  0  0  0  0  0  0  0  0
   -1.8049    4.0823    0.0000 C   0  0  0  0  0  0  0  0  0  0  0  0
   -2.3148    2.5131    0.0000 C   0  0  0  0  0  0  0  0  0  0  0  0
  1  2  1  0  0  0  0
  2  3  1  0  0  0  0
  2  4  1  0  0  0  0
  4  5  2  0  0  0  0
  5  6  1  0  0  0  0
  6  7  2  0  0  0  0
  7  8  1  0  0  0  0
  8  9  2  0  0  0  0
  4  9  1  0  0  0  0
  7 10  1  0  0  0  0
 10 11  2  0  0  0  0
 10 12  1  0  0  0  0
 12 13  2  0  0  0  0
 13 14  1  0  0  0  0
 14 15  2  0  0  0  0
 15 16  1  0  0  0  0
 12 16  1  0  0  0  0
 16 17  1  0  0  0  0
 17 18  1  0  0  0  0
 17 19  1  0  0  0  0
 17 20  1  0  0  0  0
M  END
> <ID>
CPD_4015

$$$$
CPD_4020
  Mrv1822 09091914012D          

 22 23  0  0  0  0            999 V2000
    3.5724   -1.2375    0.0000 C   0  0  0  0  0  0  0  0  0  0  0  0
    2.8579   -1.6500    0.0000 C   0  0  0  0  0  0  0  0  0  0  0  0
    2.1434   -1.2375    0.0000 C   0  0  0  0  0  0  0  0  0  0  0  0
    1.4289   -1.6500    0.0000 C   0  0  0  0  0  0  0  0  0  0  0  0
    0.7145   -1.2375    0.0000 O   0  0  0  0  0  0  0  0  0  0  0  0
    1.4289   -2.4750    0.0000 C   0  0  0  0  0  0  0  0  0  0  0  0
    0.7145   -2.8875    0.0000 C   0  0  0  0  0  0  0  0  0  0  0  0
    0.7145   -3.7125    0.0000 C   0  0  0  0  0  0  0  0  0  0  0  0
    1.4289   -4.1250    0.0000 C   0  0  0  0  0  0  0  0  0  0  0  0
    2.1434   -3.7125    0.0000 C   0  0  0  0  0  0  0  0  0  0  0  0
    2.1434   -2.8875    0.0000 C   0  0  0  0  0  0  0  0  0  0  0  0
    0.0000   -2.4750    0.0000 N   0  0  0  0  0  0  0  0  0  0  0  0
   -0.0000   -1.6500    0.0000 C   0  0  0  0  0  0  0  0  0  0  0  0
   -0.7145   -2.8875    0.0000 C   0  0  0  0  0  0  0  0  0  0  0  0
   -0.7145   -3.7125    0.0000 O   0  0  0  0  0  0  0  0  0  0  0  0
   -1.4289   -2.4750    0.0000 C   0  0  0  0  0  0  0  0  0  0  0  0
   -2.1434   -2.8875    0.0000 C   0  0  0  0  0  0  0  0  0  0  0  0
   -2.8579   -2.4750    0.0000 C   0  0  0  0  0  0  0  0  0  0  0  0
   -2.8579   -1.6500    0.0000 C   0  0  0  0  0  0  0  0  0  0  0  0
   -3.5724   -1.2375    0.0000 Cl  0  0  0  0  0  0  0  0  0  0  0  0
   -2.1434   -1.2375    0.0000 C   0  0  0  0  0  0  0  0  0  0  0  0
   -1.4289   -1.6500    0.0000 C   0  0  0  0  0  0  0  0  0  0  0  0
  1  2  1  0  0  0  0
  2  3  1  0  0  0  0
  3  4  1  0  0  0  0
  4  5  2  0  0  0  0
  4  6  1  0  0  0  0
  6  7  2  0  0  0  0
  7  8  1  0  0  0  0
  8  9  2  0  0  0  0
  9 10  1  0  0  0  0
 10 11  2  0  0  0  0
  6 11  1  0  0  0  0
  7 12  1  0  0  0  0
 12 13  1  0  0  0  0
 12 14  1  0  0  0  0
 14 15  2  0  0  0  0
 14 16  1  0  0  0  0
 16 17  2  0  0  0  0
 17 18  1  0  0  0  0
 18 19  2  0  0  0  0
 19 20  1  0  0  0  0
 19 21  1  0  0  0  0
 21 22  2  0  0  0  0
 16 22  1  0  0  0  0
M  END
> <ID>
CPD_4020

$$$$
CPD_4025
  Mrv1822 09091914012D          

 36 39  0  0  0  0            999 V2000
    7.0714    3.1729    0.0000 C   0  0  0  0  0  0  0  0  0  0  0  0
    6.3569    2.7604    0.0000 C   0  0  0  0  0  0  0  0  0  0  0  0
    6.3569    1.9354    0.0000 O   0  0  0  0  0  0  0  0  0  0  0  0
    5.6424    1.5229    0.0000 C   0  0  0  0  0  0  0  0  0  0  0  0
    5.6424    0.6979    0.0000 C   0  0  0  0  0  0  0  0  0  0  0  0
    4.9279    0.2854    0.0000 C   0  0  0  0  0  0  0  0  0  0  0  0
    4.2135    0.6979    0.0000 C   0  0  0  0  0  0  0  0  0  0  0  0
    3.4990    0.2854    0.0000 N   0  0  0  0  0  0  0  0  0  0  0  0
    2.7845    0.6979    0.0000 S   0  0  0  0  0  0  0  0  0  0  0  0
    3.1970    1.4124    0.0000 O   0  0  0  0  0  0  0  0  0  0  0  0
    2.3720   -0.0165    0.0000 O   0  0  0  0  0  0  0  0  0  0  0  0
    2.0701    1.1104    0.0000 C   0  0  0  0  0  0  0  0  0  0  0  0
    1.3556    0.6979    0.0000 C   0  0  0  0  0  0  0  0  0  0  0  0
    0.6411    1.1104    0.0000 N   0  0  0  0  0  0  0  0  0  0  0  0
    0.6411    1.9354    0.0000 C   0  0  0  0  0  0  0  0  0  0  0  0
    1.3556    2.3479    0.0000 C   0  0  0  0  0  0  0  0  0  0  0  0
    2.0701    1.9354    0.0000 C   0  0  0  0  0  0  0  0  0  0  0  0
   -0.1435    2.1904    0.0000 N   0  0  0  0  0  0  0  0  0  0  0  0
   -0.6284    1.5229    0.0000 N   0  0  0  0  0  0  0  0  0  0  0  0
   -0.1435    0.8555    0.0000 C   0  0  0  0  0  0  0  0  0  0  0  0
   -0.3984    0.0709    0.0000 C   0  0  0  0  0  0  0  0  0  0  0  0
    0.1536   -0.5422    0.0000 O   0  0  0  0  0  0  0  0  0  0  0  0
   -1.2054   -0.1006    0.0000 C   0  0  0  0  0  0  0  0  0  0  0  0
   -1.4604   -0.8853    0.0000 C   0  0  0  0  0  0  0  0  0  0  0  0
   -2.2673   -1.0568    0.0000 C   0  0  0  0  0  0  0  0  0  0  0  0
   -2.5223   -1.8414    0.0000 O   0  0  0  0  0  0  0  0  0  0  0  0
   -3.3292   -2.0129    0.0000 C   0  0  0  0  0  0  0  0  0  0  0  0
   -2.8194   -0.4437    0.0000 C   0  0  0  0  0  0  0  0  0  0  0  0
   -3.6263   -0.6152    0.0000 O   0  0  0  0  0  0  0  0  0  0  0  0
   -3.8813   -1.3998    0.0000 C   0  0  0  0  0  0  0  0  0  0  0  0
   -2.5644    0.3409    0.0000 C   0  0  0  0  0  0  0  0  0  0  0  0
   -3.1165    0.9540    0.0000 O   0  0  0  0  0  0  0  0  0  0  0  0
   -2.8615    1.7386    0.0000 C   0  0  0  0  0  0  0  0  0  0  0  0
   -1.7575    0.5124    0.0000 C   0  0  0  0  0  0  0  0  0  0  0  0
    4.2135    1.5229    0.0000 C   0  0  0  0  0  0  0  0  0  0  0  0
    4.9279    1.9354    0.0000 C   0  0  0  0  0  0  0  0  0  0  0  0
  1  2  1  0  0  0  0
  2  3  1  0  0  0  0
  3  4  1  0  0  0  0
  4  5  2  0  0  0  0
  5  6  1  0  0  0  0
  6  7  2  0  0  0  0
  7  8  1  0  0  0  0
  8  9  1  0  0  0  0
  9 10  2  0  0  0  0
  9 11  2  0  0  0  0
  9 12  1  0  0  0  0
 12 13  2  0  0  0  0
 13 14  1  0  0  0  0
 14 15  1  0  0  0  0
 15 16  1  0  0  0  0
 16 17  2  0  0  0  0
 12 17  1  0  0  0  0
 15 18  2  0  0  0  0
 18 19  1  0  0  0  0
 19 20  2  0  0  0  0
 14 20  1  0  0  0  0
 20 21  1  0  0  0  0
 21 22  2  0  0  0  0
 21 23  1  0  0  0  0
 23 24  2  0  0  0  0
 24 25  1  0  0  0  0
 25 26  1  0  0  0  0
 26 27  1  0  0  0  0
 25 28  2  0  0  0  0
 28 29  1  0  0  0  0
 29 30  1  0  0  0  0
 28 31  1  0  0  0  0
 31 32  1  0  0  0  0
 32 33  1  0  0  0  0
 31 34  2  0  0  0  0
 23 34  1  0  0  0  0
  7 35  1  0  0  0  0
 35 36  2  0  0  0  0
  4 36  1  0  0  0  0
M  END
> <ID>
CPD_4025

$$$$
CPD_4030
  Mrv1822 09091914012D          

 19 20  0  0  0  0            999 V2000
   -1.4289    0.0000    0.0000 C   0  0  0  0  0  0  0  0  0  0  0  0
   -0.7145   -0.4125    0.0000 O   0  0  0  0  0  0  0  0  0  0  0  0
   -0.7145   -1.2375    0.0000 C   0  0  0  0  0  0  0  0  0  0  0  0
    0.0000   -1.6500    0.0000 C   0  0  0  0  0  0  0  0  0  0  0  0
    0.0000   -2.4750    0.0000 C   0  0  0  0  0  0  0  0  0  0  0  0
    0.7145   -2.8875    0.0000 C   0  0  0  0  0  0  0  0  0  0  0  0
    1.4289   -2.4750    0.0000 N   0  0  0  0  0  0  0  0  0  0  0  0
    2.1434   -2.8875    0.0000 C   0  0  0  0  0  0  0  0  0  0  0  0
    2.8579   -2.4750    0.0000 C   0  0  0  0  0  0  0  0  0  0  0  0
    3.5724   -2.8875    0.0000 C   0  0  0  0  0  0  0  0  0  0  0  0
    4.2868   -2.4750    0.0000 C   0  0  0  0  0  0  0  0  0  0  0  0
    5.0013   -2.8875    0.0000 C   0  0  0  0  0  0  0  0  0  0  0  0
    5.0013   -3.7125    0.0000 C   0  0  0  0  0  0  0  0  0  0  0  0
    5.7158   -4.1250    0.0000 O   0  0  0  0  0  0  0  0  0  0  0  0
    4.2868   -4.1250    0.0000 C   0  0  0  0  0  0  0  0  0  0  0  0
    3.5724   -3.7125    0.0000 C   0  0  0  0  0  0  0  0  0  0  0  0
   -0.7145   -2.8875    0.0000 C   0  0  0  0  0  0  0  0  0  0  0  0
   -1.4289   -2.4750    0.0000 C   0  0  0  0  0  0  0  0  0  0  0  0
   -1.4289   -1.6500    0.0000 C   0  0  0  0  0  0  0  0  0  0  0  0
  1  2  1  0  0  0  0
  2  3  1  0  0  0  0
  3  4  2  0  0  0  0
  4  5  1  0  0  0  0
  5  6  1  0  0  0  0
  6  7  1  0  0  0  0
  7  8  1  0  0  0  0
  8  9  1  0  0  0  0
  9 10  1  0  0  0  0
 10 11  2  0  0  0  0
 11 12  1  0  0  0  0
 12 13  2  0  0  0  0
 13 14  1  0  0  0  0
 13 15  1  0  0  0  0
 15 16  2  0  0  0  0
 10 16  1  0  0  0  0
  5 17  2  0  0  0  0
 17 18  1  0  0  0  0
 18 19  2  0  0  0  0
  3 19  1  0  0  0  0
M  END
> <ID>
CPD_4030

$$$$
CPD_4035
  Mrv1822 09091914012D          

 20 22  0  0  0  0            999 V2000
   -2.2673    1.8818    0.0000 C   0  0  0  0  0  0  0  0  0  0  0  0
   -1.4604    1.7103    0.0000 N   0  0  0  0  0  0  0  0  0  0  0  0
   -0.9083    2.3234    0.0000 C   0  0  0  0  0  0  0  0  0  0  0  0
   -1.2054    0.9256    0.0000 C   0  0  0  0  0  0  0  0  0  0  0  0
   -0.3984    0.7541    0.0000 C   0  0  0  0  0  0  0  0  0  0  0  0
   -0.1435   -0.0305    0.0000 C   0  0  0  0  0  0  0  0  0  0  0  0
   -0.6284   -0.6979    0.0000 C   0  0  0  0  0  0  0  0  0  0  0  0
   -0.1435   -1.3654    0.0000 N   0  0  0  0  0  0  0  0  0  0  0  0
    0.6411   -1.1104    0.0000 C   0  0  0  0  0  0  0  0  0  0  0  0
    0.6411   -0.2854    0.0000 C   0  0  0  0  0  0  0  0  0  0  0  0
    1.3556    0.1271    0.0000 C   0  0  0  0  0  0  0  0  0  0  0  0
    2.0701   -0.2854    0.0000 C   0  0  0  0  0  0  0  0  0  0  0  0
    2.7845    0.1271    0.0000 C   0  0  0  0  0  0  0  0  0  0  0  0
    3.4990   -0.2854    0.0000 N   0  0  0  0  0  0  0  0  0  0  0  0
    4.2527    0.0501    0.0000 C   0  0  0  0  0  0  0  0  0  0  0  0
    4.8047   -0.5630    0.0000 N   0  0  0  0  0  0  0  0  0  0  0  0
    4.3922   -1.2775    0.0000 C   0  0  0  0  0  0  0  0  0  0  0  0
    3.5852   -1.1059    0.0000 N   0  0  0  0  0  0  0  0  0  0  0  0
    2.0701   -1.1104    0.0000 C   0  0  0  0  0  0  0  0  0  0  0  0
    1.3556   -1.5229    0.0000 C   0  0  0  0  0  0  0  0  0  0  0  0
  1  2  1  0  0  0  0
  2  3  1  0  0  0  0
  2  4  1  0  0  0  0
  4  5  1  0  0  0  0
  5  6  1  0  0  0  0
  6  7  2  0  0  0  0
  7  8  1  0  0  0  0
  8  9  1  0  0  0  0
  9 10  2  0  0  0  0
  6 10  1  0  0  0  0
 10 11  1  0  0  0  0
 11 12  2  0  0  0  0
 12 13  1  0  0  0  0
 13 14  1  0  0  0  0
 14 15  1  0  0  0  0
 15 16  2  0  0  0  0
 16 17  1  0  0  0  0
 17 18  2  0  0  0  0
 14 18  1  0  0  0  0
 12 19  1  0  0  0  0
 19 20  2  0  0  0  0
  9 20  1  0  0  0  0
M  END
> <ID>
CPD_4035

$$$$
CPD_4040
  Mrv1822 09091914012D          

 29 31  0  0  0  0            999 V2000
   -1.4289   -1.6500    0.0000 C   0  0  0  0  0  0  0  0  0  0  0  0
   -1.4289   -2.4750    0.0000 C   0  0  0  0  0  0  0  0  0  0  0  0
   -2.1434   -2.8875    0.0000 O   0  0  0  0  0  0  0  0  0  0  0  0
   -0.7145   -2.8875    0.0000 N   0  0  0  0  0  0  0  0  0  0  0  0
   -0.7145   -3.7125    0.0000 C   0  0  0  0  0  0  0  0  0  0  0  0
    0.0000   -4.1250    0.0000 C   0  0  0  0  0  0  0  0  0  0  0  0
    0.0000   -4.9500    0.0000 C   0  0  0  0  0  0  0  0  0  0  0  0
   -0.7145   -5.3625    0.0000 C   0  0  0  0  0  0  0  0  0  0  0  0
   -0.7145   -6.1875    0.0000 O   0  0  0  0  0  0  0  0  0  0  0  0
   -1.4289   -6.6000    0.0000 C   0  0  0  0  0  0  0  0  0  0  0  0
   -1.4289   -7.4250    0.0000 C   0  0  0  0  0  0  0  0  0  0  0  0
   -2.1434   -7.8375    0.0000 C   0  0  0  0  0  0  0  0  0  0  0  0
   -2.8579   -7.4250    0.0000 C   0  0  0  0  0  0  0  0  0  0  0  0
   -2.8579   -6.6000    0.0000 C   0  0  0  0  0  0  0  0  0  0  0  0
   -2.1434   -6.1875    0.0000 C   0  0  0  0  0  0  0  0  0  0  0  0
   -2.1434   -8.6625    0.0000 C   0  0  0  0  0  0  0  0  0  0  0  0
   -1.4289   -9.0750    0.0000 C   0  0  0  0  0  0  0  0  0  0  0  0
   -1.4289   -9.9000    0.0000 C   0  0  0  0  0  0  0  0  0  0  0  0
   -2.1434  -10.3125    0.0000 C   0  0  0  0  0  0  0  0  0  0  0  0
   -2.1434  -11.1375    0.0000 C   0  0  0  0  0  0  0  0  0  0  0  0
   -1.4289  -11.5500    0.0000 N   0  0  0  0  0  0  0  0  0  0  0  0
   -2.8579   -9.9000    0.0000 C   0  0  0  0  0  0  0  0  0  0  0  0
   -2.8579   -9.0750    0.0000 C   0  0  0  0  0  0  0  0  0  0  0  0
   -1.4289   -4.9500    0.0000 C   0  0  0  0  0  0  0  0  0  0  0  0
   -1.4289   -4.1250    0.0000 C   0  0  0  0  0  0  0  0  0  0  0  0
    0.7145   -3.7125    0.0000 C   0  0  0  0  0  0  0  0  0  0  0  0
    1.4289   -3.3000    0.0000 F   0  0  0  0  0  0  0  0  0  0  0  0
    1.1270   -4.4270    0.0000 F   0  0  0  0  0  0  0  0  0  0  0  0
    0.3020   -2.9980    0.0000 F   0  0  0  0  0  0  0  0  0  0  0  0
  1  2  1  0  0  0  0
  2  3  2  0  0  0  0
  2  4  1  0  0  0  0
  4  5  1  0  0  0  0
  5  6  2  0  0  0  0
  6  7  1  0  0  0  0
  7  8  2  0  0  0  0
  8  9  1  0  0  0  0
  9 10  1  0  0  0  0
 10 11  2  0  0  0  0
 11 12  1  0  0  0  0
 12 13  2  0  0  0  0
 13 14  1  0  0  0  0
 14 15  2  0  0  0  0
 10 15  1  0  0  0  0
 12 16  1  0  0  0  0
 16 17  2  0  0  0  0
 17 18  1  0  0  0  0
 18 19  2  0  0  0  0
 19 20  1  0  0  0  0
 20 21  1  0  0  0  0
 19 22  1  0  0  0  0
 22 23  2  0  0  0  0
 16 23  1  0  0  0  0
  8 24  1  0  0  0  0
 24 25  2  0  0  0  0
  5 25  1  0  0  0  0
  6 26  1  0  0  0  0
 26 27  1  0  0  0  0
 26 28  1  0  0  0  0
 26 29  1  0  0  0  0
M  END
> <ID>
CPD_4040

$$$$
CPD_4045
  Mrv1822 09091914012D          

 22 23  0  0  0  0            999 V2000
    1.4289    0.8250    0.0000 C   0  0  0  0  0  0  0  0  0  0  0  0
    1.4289    0.0000    0.0000 C   0  0  0  0  0  0  0  0  0  0  0  0
    0.7145   -0.4125    0.0000 O   0  0  0  0  0  0  0  0  0  0  0  0
    2.1434   -0.4125    0.0000 N   0  0  0  0  0  0  0  0  0  0  0  0
    2.1434   -1.2375    0.0000 C   0  0  0  0  0  0  0  0  0  0  0  0
    2.8579   -1.6500    0.0000 C   0  0  0  0  0  0  0  0  0  0  0  0
    2.8579   -2.4750    0.0000 C   0  0  0  0  0  0  0  0  0  0  0  0
    2.1434   -2.8875    0.0000 C   0  0  0  0  0  0  0  0  0  0  0  0
    2.1434   -3.7125    0.0000 O   0  0  0  0  0  0  0  0  0  0  0  0
    1.4289   -4.1250    0.0000 C   0  0  0  0  0  0  0  0  0  0  0  0
    1.4289   -4.9500    0.0000 C   0  0  0  0  0  0  0  0  0  0  0  0
    0.7145   -5.3625    0.0000 C   0  0  0  0  0  0  0  0  0  0  0  0
   -0.0000   -4.9500    0.0000 C   0  0  0  0  0  0  0  0  0  0  0  0
   -0.7145   -5.3625    0.0000 C   0  0  0  0  0  0  0  0  0  0  0  0
   -0.0000   -4.1250    0.0000 C   0  0  0  0  0  0  0  0  0  0  0  0
    0.7145   -3.7125    0.0000 C   0  0  0  0  0  0  0  0  0  0  0  0
    1.4289   -2.4750    0.0000 C   0  0  0  0  0  0  0  0  0  0  0  0
    1.4289   -1.6500    0.0000 C   0  0  0  0  0  0  0  0  0  0  0  0
    3.5724   -1.2375    0.0000 C   0  0  0  0  0  0  0  0  0  0  0  0
    4.2868   -0.8250    0.0000 F   0  0  0  0  0  0  0  0  0  0  0  0
    3.9849   -1.9520    0.0000 F   0  0  0  0  0  0  0  0  0  0  0  0
    3.1599   -0.5230    0.0000 F   0  0  0  0  0  0  0  0  0  0  0  0
  1  2  1  0  0  0  0
  2  3  2  0  0  0  0
  2  4  1  0  0  0  0
  4  5  1  0  0  0  0
  5  6  2  0  0  0  0
  6  7  1  0  0  0  0
  7  8  2  0  0  0  0
  8  9  1  0  0  0  0
  9 10  1  0  0  0  0
 10 11  2  0  0  0  0
 11 12  1  0  0  0  0
 12 13  2  0  0  0  0
 13 14  1  0  0  0  0
 13 15  1  0  0  0  0
 15 16  2  0  0  0  0
 10 16  1  0  0  0  0
  8 17  1  0  0  0  0
 17 18  2  0  0  0  0
  5 18  1  0  0  0  0
  6 19  1  0  0  0  0
 19 20  1  0  0  0  0
 19 21  1  0  0  0  0
 19 22  1  0  0  0  0
M  END
> <ID>
CPD_4045

$$$$
CPD_4050
  Mrv1822 09091914012D          

 36 39  0  0  0  0            999 V2000
    0.8838   -2.1500    0.0000 C   0  0  0  0  0  0  0  0  0  0  0  0
    1.1387   -1.3654    0.0000 N   0  0  0  0  0  0  0  0  0  0  0  0
    0.6538   -0.6979    0.0000 C   0  0  0  0  0  0  0  0  0  0  0  0
   -0.1712   -0.6979    0.0000 C   0  0  0  0  0  0  0  0  0  0  0  0
   -0.5837   -1.4124    0.0000 N   0  0  0  0  0  0  0  0  0  0  0  0
    1.1387   -0.0305    0.0000 N   0  0  0  0  0  0  0  0  0  0  0  0
    1.9233   -0.2854    0.0000 C   0  0  0  0  0  0  0  0  0  0  0  0
    2.6378    0.1271    0.0000 C   0  0  0  0  0  0  0  0  0  0  0  0
    3.3523   -0.2854    0.0000 C   0  0  0  0  0  0  0  0  0  0  0  0
    3.3523   -1.1104    0.0000 C   0  0  0  0  0  0  0  0  0  0  0  0
    2.6378   -1.5229    0.0000 C   0  0  0  0  0  0  0  0  0  0  0  0
    1.9233   -1.1104    0.0000 C   0  0  0  0  0  0  0  0  0  0  0  0
    4.0668    0.1271    0.0000 C   0  0  0  0  0  0  0  0  0  0  0  0
    4.4793   -0.5874    0.0000 F   0  0  0  0  0  0  0  0  0  0  0  0
    3.6543    0.8415    0.0000 F   0  0  0  0  0  0  0  0  0  0  0  0
    4.7812    0.5396    0.0000 C   0  0  0  0  0  0  0  0  0  0  0  0
    4.7812    1.3646    0.0000 C   0  0  0  0  0  0  0  0  0  0  0  0
    5.4957    1.7771    0.0000 C   0  0  0  0  0  0  0  0  0  0  0  0
    6.2102    1.3646    0.0000 C   0  0  0  0  0  0  0  0  0  0  0  0
    6.9246    1.7771    0.0000 O   0  0  0  0  0  0  0  0  0  0  0  0
    7.6391    1.3646    0.0000 C   0  0  0  0  0  0  0  0  0  0  0  0
    8.3536    1.7771    0.0000 C   0  0  0  0  0  0  0  0  0  0  0  0
    9.0681    1.3646    0.0000 C   0  0  0  0  0  0  0  0  0  0  0  0
    9.0681    0.5396    0.0000 C   0  0  0  0  0  0  0  0  0  0  0  0
    9.7825    0.1271    0.0000 N   0  0  0  0  0  0  0  0  0  0  0  0
    9.7825   -0.6979    0.0000 C   0  0  0  0  0  0  0  0  0  0  0  0
   10.4970   -1.1104    0.0000 C   0  0  0  0  0  0  0  0  0  0  0  0
    9.0681   -1.1104    0.0000 O   0  0  0  0  0  0  0  0  0  0  0  0
    8.3536    0.1271    0.0000 C   0  0  0  0  0  0  0  0  0  0  0  0
    7.6391    0.5396    0.0000 C   0  0  0  0  0  0  0  0  0  0  0  0
    9.7825    1.7771    0.0000 C   0  0  0  0  0  0  0  0  0  0  0  0
   10.4970    2.1896    0.0000 F   0  0  0  0  0  0  0  0  0  0  0  0
   10.1950    1.0626    0.0000 F   0  0  0  0  0  0  0  0  0  0  0  0
    9.3700    2.4915    0.0000 F   0  0  0  0  0  0  0  0  0  0  0  0
    6.2102    0.5396    0.0000 C   0  0  0  0  0  0  0  0  0  0  0  0
    5.4957    0.1271    0.0000 C   0  0  0  0  0  0  0  0  0  0  0  0
  1  2  1  0  0  0  0
  2  3  1  0  0  0  0
  3  4  1  0  0  0  0
  4  5  1  0  0  0  0
  3  6  2  0  0  0  0
  6  7  1  0  0  0  0
  7  8  2  0  0  0  0
  8  9  1  0  0  0  0
  9 10  2  0  0  0  0
 10 11  1  0  0  0  0
 11 12  2  0  0  0  0
  2 12  1  0  0  0  0
  7 12  1  0  0  0  0
  9 13  1  0  0  0  0
 13 14  1  0  0  0  0
 13 15  1  0  0  0  0
 13 16  1  0  0  0  0
 16 17  2  0  0  0  0
 17 18  1  0  0  0  0
 18 19  2  0  0  0  0
 19 20  1  0  0  0  0
 20 21  1  0  0  0  0
 21 22  2  0  0  0  0
 22 23  1  0  0  0  0
 23 24  2  0  0  0  0
 24 25  1  0  0  0  0
 25 26  1  0  0  0  0
 26 27  1  0  0  0  0
 26 28  2  0  0  0  0
 24 29  1  0  0  0  0
 29 30  2  0  0  0  0
 21 30  1  0  0  0  0
 23 31  1  0  0  0  0
 31 32  1  0  0  0  0
 31 33  1  0  0  0  0
 31 34  1  0  0  0  0
 19 35  1  0  0  0  0
 35 36  2  0  0  0  0
 16 36  1  0  0  0  0
M  END
> <ID>
CPD_4050

$$$$
CPD_4055
  Mrv1822 09091914012D          

 30 32  0  0  0  0            999 V2000
   -1.4289   -1.6500    0.0000 C   0  0  0  0  0  0  0  0  0  0  0  0
   -1.4289   -2.4750    0.0000 C   0  0  0  0  0  0  0  0  0  0  0  0
   -2.1434   -2.8875    0.0000 O   0  0  0  0  0  0  0  0  0  0  0  0
   -0.7145   -2.8875    0.0000 N   0  0  0  0  0  0  0  0  0  0  0  0
   -0.7145   -3.7125    0.0000 C   0  0  0  0  0  0  0  0  0  0  0  0
    0.0000   -4.1250    0.0000 C   0  0  0  0  0  0  0  0  0  0  0  0
    0.0000   -4.9500    0.0000 C   0  0  0  0  0  0  0  0  0  0  0  0
   -0.7145   -5.3625    0.0000 C   0  0  0  0  0  0  0  0  0  0  0  0
   -0.7145   -6.1875    0.0000 O   0  0  0  0  0  0  0  0  0  0  0  0
   -1.4289   -6.6000    0.0000 C   0  0  0  0  0  0  0  0  0  0  0  0
   -1.4289   -7.4250    0.0000 C   0  0  0  0  0  0  0  0  0  0  0  0
   -2.1434   -7.8375    0.0000 C   0  0  0  0  0  0  0  0  0  0  0  0
   -2.8579   -7.4250    0.0000 C   0  0  0  0  0  0  0  0  0  0  0  0
   -2.8579   -6.6000    0.0000 C   0  0  0  0  0  0  0  0  0  0  0  0
   -2.1434   -6.1875    0.0000 C   0  0  0  0  0  0  0  0  0  0  0  0
   -2.1434   -8.6625    0.0000 C   0  0  0  0  0  0  0  0  0  0  0  0
   -1.4289   -9.0750    0.0000 C   0  0  0  0  0  0  0  0  0  0  0  0
   -1.4289   -9.9000    0.0000 C   0  0  0  0  0  0  0  0  0  0  0  0
   -0.7145  -10.3125    0.0000 N   0  0  0  0  0  0  0  0  0  0  0  0
   -2.1434  -10.3125    0.0000 C   0  0  0  0  0  0  0  0  0  0  0  0
   -2.1434  -11.1375    0.0000 Cl  0  0  0  0  0  0  0  0  0  0  0  0
   -2.8579   -9.9000    0.0000 C   0  0  0  0  0  0  0  0  0  0  0  0
   -2.8579   -9.0750    0.0000 C   0  0  0  0  0  0  0  0  0  0  0  0
   -3.5724   -8.6625    0.0000 Cl  0  0  0  0  0  0  0  0  0  0  0  0
   -1.4289   -4.9500    0.0000 C   0  0  0  0  0  0  0  0  0  0  0  0
   -1.4289   -4.1250    0.0000 C   0  0  0  0  0  0  0  0  0  0  0  0
    0.7145   -3.7125    0.0000 C   0  0  0  0  0  0  0  0  0  0  0  0
    1.4289   -3.3000    0.0000 F   0  0  0  0  0  0  0  0  0  0  0  0
    1.1270   -4.4270    0.0000 F   0  0  0  0  0  0  0  0  0  0  0  0
    0.3020   -2.9980    0.0000 F   0  0  0  0  0  0  0  0  0  0  0  0
  1  2  1  0  0  0  0
  2  3  2  0  0  0  0
  2  4  1  0  0  0  0
  4  5  1  0  0  0  0
  5  6  2  0  0  0  0
  6  7  1  0  0  0  0
  7  8  2  0  0  0  0
  8  9  1  0  0  0  0
  9 10  1  0  0  0  0
 10 11  2  0  0  0  0
 11 12  1  0  0  0  0
 12 13  2  0  0  0  0
 13 14  1  0  0  0  0
 14 15  2  0  0  0  0
 10 15  1  0  0  0  0
 12 16  1  0  0  0  0
 16 17  2  0  0  0  0
 17 18  1  0  0  0  0
 18 19  1  0  0  0  0
 18 20  2  0  0  0  0
 20 21  1  0  0  0  0
 20 22  1  0  0  0  0
 22 23  2  0  0  0  0
 16 23  1  0  0  0  0
 23 24  1  0  0  0  0
  8 25  1  0  0  0  0
 25 26  2  0  0  0  0
  5 26  1  0  0  0  0
  6 27  1  0  0  0  0
 27 28  1  0  0  0  0
 27 29  1  0  0  0  0
 27 30  1  0  0  0  0
M  END
> <ID>
CPD_4055

$$$$
CPD_4060
  Mrv1822 09091914012D          

 25 26  0  0  0  0            999 V2000
    1.4289    0.8250    0.0000 C   0  0  0  0  0  0  0  0  0  0  0  0
    1.4289    0.0000    0.0000 C   0  0  0  0  0  0  0  0  0  0  0  0
    0.7145   -0.4125    0.0000 O   0  0  0  0  0  0  0  0  0  0  0  0
    2.1434   -0.4125    0.0000 N   0  0  0  0  0  0  0  0  0  0  0  0
    2.1434   -1.2375    0.0000 C   0  0  0  0  0  0  0  0  0  0  0  0
    2.8579   -1.6500    0.0000 C   0  0  0  0  0  0  0  0  0  0  0  0
    2.8579   -2.4750    0.0000 C   0  0  0  0  0  0  0  0  0  0  0  0
    2.1434   -2.8875    0.0000 C   0  0  0  0  0  0  0  0  0  0  0  0
    2.1434   -3.7125    0.0000 O   0  0  0  0  0  0  0  0  0  0  0  0
    1.4289   -4.1250    0.0000 C   0  0  0  0  0  0  0  0  0  0  0  0
    1.4289   -4.9500    0.0000 C   0  0  0  0  0  0  0  0  0  0  0  0
    0.7145   -5.3625    0.0000 C   0  0  0  0  0  0  0  0  0  0  0  0
   -0.0000   -4.9500    0.0000 C   0  0  0  0  0  0  0  0  0  0  0  0
   -0.0000   -4.1250    0.0000 C   0  0  0  0  0  0  0  0  0  0  0  0
    0.7145   -3.7125    0.0000 C   0  0  0  0  0  0  0  0  0  0  0  0
   -0.7145   -5.3625    0.0000 C   0  0  0  0  0  0  0  0  0  0  0  0
   -1.4289   -5.7750    0.0000 C   0  0  0  0  0  0  0  0  0  0  0  0
   -1.1270   -4.6480    0.0000 C   0  0  0  0  0  0  0  0  0  0  0  0
   -0.3020   -6.0770    0.0000 C   0  0  0  0  0  0  0  0  0  0  0  0
    1.4289   -2.4750    0.0000 C   0  0  0  0  0  0  0  0  0  0  0  0
    1.4289   -1.6500    0.0000 C   0  0  0  0  0  0  0  0  0  0  0  0
    3.5724   -1.2375    0.0000 C   0  0  0  0  0  0  0  0  0  0  0  0
    4.2868   -0.8250    0.0000 F   0  0  0  0  0  0  0  0  0  0  0  0
    3.9849   -1.9520    0.0000 F   0  0  0  0  0  0  0  0  0  0  0  0
    3.1599   -0.5230    0.0000 F   0  0  0  0  0  0  0  0  0  0  0  0
  1  2  1  0  0  0  0
  2  3  2  0  0  0  0
  2  4  1  0  0  0  0
  4  5  1  0  0  0  0
  5  6  2  0  0  0  0
  6  7  1  0  0  0  0
  7  8  2  0  0  0  0
  8  9  1  0  0  0  0
  9 10  1  0  0  0  0
 10 11  2  0  0  0  0
 11 12  1  0  0  0  0
 12 13  2  0  0  0  0
 13 14  1  0  0  0  0
 14 15  2  0  0  0  0
 10 15  1  0  0  0  0
 13 16  1  0  0  0  0
 16 17  1  0  0  0  0
 16 18  1  0  0  0  0
 16 19  1  0  0  0  0
  8 20  1  0  0  0  0
 20 21  2  0  0  0  0
  5 21  1  0  0  0  0
  6 22  1  0  0  0  0
 22 23  1  0  0  0  0
 22 24  1  0  0  0  0
 22 25  1  0  0  0  0
M  END
> <ID>
CPD_4060

$$$$
CPD_4065
  Mrv1822 09091914012D          

 30 33  0  0  0  0            999 V2000
    1.2418   -1.8807    0.0000 O   0  0  0  0  0  0  0  0  0  0  0  0
    0.4213   -1.7945    0.0000 C   0  0  0  0  0  0  0  0  0  0  0  0
   -0.0636   -2.4619    0.0000 C   0  0  0  0  0  0  0  0  0  0  0  0
    0.1913   -3.2466    0.0000 N   0  0  0  0  0  0  0  0  0  0  0  0
   -0.4761   -3.7315    0.0000 C   0  0  0  0  0  0  0  0  0  0  0  0
   -0.4761   -4.5565    0.0000 C   0  0  0  0  0  0  0  0  0  0  0  0
   -0.0636   -5.2710    0.0000 C   0  0  0  0  0  0  0  0  0  0  0  0
   -0.8886   -5.2710    0.0000 C   0  0  0  0  0  0  0  0  0  0  0  0
   -1.1436   -3.2466    0.0000 C   0  0  0  0  0  0  0  0  0  0  0  0
   -0.8886   -2.4619    0.0000 S   0  0  0  0  0  0  0  0  0  0  0  0
   -1.9282   -3.5015    0.0000 C   0  0  0  0  0  0  0  0  0  0  0  0
   -2.0997   -4.3085    0.0000 C   0  0  0  0  0  0  0  0  0  0  0  0
   -1.4866   -4.8605    0.0000 F   0  0  0  0  0  0  0  0  0  0  0  0
   -2.8843   -4.5634    0.0000 C   0  0  0  0  0  0  0  0  0  0  0  0
   -3.0559   -5.3704    0.0000 F   0  0  0  0  0  0  0  0  0  0  0  0
   -3.4974   -4.0114    0.0000 C   0  0  0  0  0  0  0  0  0  0  0  0
   -4.2820   -4.2663    0.0000 O   0  0  0  0  0  0  0  0  0  0  0  0
   -4.4536   -5.0733    0.0000 C   0  0  0  0  0  0  0  0  0  0  0  0
   -3.8405   -5.6253    0.0000 O   0  0  0  0  0  0  0  0  0  0  0  0
   -5.2382   -5.3282    0.0000 C   0  0  0  0  0  0  0  0  0  0  0  0
   -5.4097   -6.1352    0.0000 C   0  0  0  0  0  0  0  0  0  0  0  0
   -6.1943   -6.3901    0.0000 C   0  0  0  0  0  0  0  0  0  0  0  0
   -6.8074   -5.8381    0.0000 C   0  0  0  0  0  0  0  0  0  0  0  0
   -7.5921   -6.0930    0.0000 F   0  0  0  0  0  0  0  0  0  0  0  0
   -6.6359   -5.0311    0.0000 C   0  0  0  0  0  0  0  0  0  0  0  0
   -5.8513   -4.7762    0.0000 C   0  0  0  0  0  0  0  0  0  0  0  0
   -3.3259   -3.2044    0.0000 C   0  0  0  0  0  0  0  0  0  0  0  0
   -3.9390   -2.6524    0.0000 F   0  0  0  0  0  0  0  0  0  0  0  0
   -2.5413   -2.9495    0.0000 C   0  0  0  0  0  0  0  0  0  0  0  0
   -2.3697   -2.1425    0.0000 F   0  0  0  0  0  0  0  0  0  0  0  0
  1  2  1  0  0  0  0
  2  3  1  0  0  0  0
  3  4  2  0  0  0  0
  4  5  1  0  0  0  0
  5  6  1  0  0  0  0
  6  7  1  0  0  0  0
  7  8  1  0  0  0  0
  6  8  1  0  0  0  0
  5  9  2  0  0  0  0
  9 10  1  0  0  0  0
  3 10  1  0  0  0  0
  9 11  1  0  0  0  0
 11 12  2  0  0  0  0
 12 13  1  0  0  0  0
 12 14  1  0  0  0  0
 14 15  1  0  0  0  0
 14 16  2  0  0  0  0
 16 17  1  0  0  0  0
 17 18  1  0  0  0  0
 18 19  2  0  0  0  0
 18 20  1  0  0  0  0
 20 21  2  0  0  0  0
 21 22  1  0  0  0  0
 22 23  2  0  0  0  0
 23 24  1  0  0  0  0
 23 25  1  0  0  0  0
 25 26  2  0  0  0  0
 20 26  1  0  0  0  0
 16 27  1  0  0  0  0
 27 28  1  0  0  0  0
 27 29  2  0  0  0  0
 11 29  1  0  0  0  0
 29 30  1  0  0  0  0
M  END
> <ID>
CPD_4065

$$$$
CPD_4070
  Mrv1822 09091914012D          

 24 26  0  0  0  0            999 V2000
    1.4185   -3.4058    0.0000 C   0  0  0  0  0  0  0  0  0  0  0  0
    1.2470   -2.5989    0.0000 O   0  0  0  0  0  0  0  0  0  0  0  0
    1.8601   -2.0468    0.0000 C   0  0  0  0  0  0  0  0  0  0  0  0
    1.6886   -1.2399    0.0000 C   0  0  0  0  0  0  0  0  0  0  0  0
    2.3017   -0.6878    0.0000 C   0  0  0  0  0  0  0  0  0  0  0  0
    3.0863   -0.9428    0.0000 C   0  0  0  0  0  0  0  0  0  0  0  0
    3.2578   -1.7497    0.0000 C   0  0  0  0  0  0  0  0  0  0  0  0
    2.6447   -2.3018    0.0000 C   0  0  0  0  0  0  0  0  0  0  0  0
    2.8162   -3.1088    0.0000 C   0  0  0  0  0  0  0  0  0  0  0  0
    3.6009   -3.3637    0.0000 C   0  0  0  0  0  0  0  0  0  0  0  0
    4.3855   -3.6186    0.0000 N   0  0  0  0  0  0  0  0  0  0  0  0
    0.9039   -0.9849    0.0000 C   0  0  0  0  0  0  0  0  0  0  0  0
    1.1589   -0.2003    0.0000 F   0  0  0  0  0  0  0  0  0  0  0  0
    0.6490   -1.7696    0.0000 F   0  0  0  0  0  0  0  0  0  0  0  0
    0.1193   -0.7300    0.0000 C   0  0  0  0  0  0  0  0  0  0  0  0
   -0.5481   -1.2149    0.0000 C   0  0  0  0  0  0  0  0  0  0  0  0
   -1.2156   -0.7300    0.0000 N   0  0  0  0  0  0  0  0  0  0  0  0
   -0.9606    0.0546    0.0000 C   0  0  0  0  0  0  0  0  0  0  0  0
   -1.4455    0.7221    0.0000 C   0  0  0  0  0  0  0  0  0  0  0  0
   -2.2660    0.6358    0.0000 O   0  0  0  0  0  0  0  0  0  0  0  0
   -0.1356    0.0546    0.0000 S   0  0  0  0  0  0  0  0  0  0  0  0
   -0.5481   -2.0399    0.0000 C   0  0  0  0  0  0  0  0  0  0  0  0
   -0.1356   -2.7544    0.0000 C   0  0  0  0  0  0  0  0  0  0  0  0
   -0.9606   -2.7544    0.0000 C   0  0  0  0  0  0  0  0  0  0  0  0
  1  2  1  0  0  0  0
  2  3  1  0  0  0  0
  3  4  2  0  0  0  0
  4  5  1  0  0  0  0
  5  6  2  0  0  0  0
  6  7  1  0  0  0  0
  7  8  2  0  0  0  0
  3  8  1  0  0  0  0
  8  9  1  0  0  0  0
  9 10  1  0  0  0  0
 10 11  3  0  0  0  0
  4 12  1  0  0  0  0
 12 13  1  0  0  0  0
 12 14  1  0  0  0  0
 12 15  1  0  0  0  0
 15 16  2  0  0  0  0
 16 17  1  0  0  0  0
 17 18  2  0  0  0  0
 18 19  1  0  0  0  0
 19 20  1  0  0  0  0
 18 21  1  0  0  0  0
 15 21  1  0  0  0  0
 16 22  1  0  0  0  0
 22 23  1  0  0  0  0
 23 24  1  0  0  0  0
 22 24  1  0  0  0  0
M  END
> <ID>
CPD_4070

$$$$
CPD_4075
  Mrv1822 09091914012D          

 28 31  0  0  0  0            999 V2000
   -2.6486   -2.5958    0.0000 C   0  0  0  0  0  0  0  0  0  0  0  0
   -1.9341   -3.0083    0.0000 O   0  0  0  0  0  0  0  0  0  0  0  0
   -1.9341   -3.8333    0.0000 C   0  0  0  0  0  0  0  0  0  0  0  0
   -1.3508   -4.4167    0.0000 C   0  0  0  0  0  0  0  0  0  0  0  0
   -0.5258   -4.4167    0.0000 N   0  0  0  0  0  0  0  0  0  0  0  0
   -0.1133   -3.7022    0.0000 C   0  0  0  0  0  0  0  0  0  0  0  0
    0.7117   -3.7022    0.0000 C   0  0  0  0  0  0  0  0  0  0  0  0
    1.1242   -4.4167    0.0000 N   0  0  0  0  0  0  0  0  0  0  0  0
    0.7117   -5.1312    0.0000 C   0  0  0  0  0  0  0  0  0  0  0  0
   -0.1133   -5.1312    0.0000 C   0  0  0  0  0  0  0  0  0  0  0  0
    1.9492   -4.4167    0.0000 C   0  0  0  0  0  0  0  0  0  0  0  0
    2.3617   -3.7022    0.0000 C   0  0  0  0  0  0  0  0  0  0  0  0
    1.9492   -2.9877    0.0000 C   0  0  0  0  0  0  0  0  0  0  0  0
    2.3617   -2.2733    0.0000 C   0  0  0  0  0  0  0  0  0  0  0  0
    1.9492   -1.5588    0.0000 C   0  0  0  0  0  0  0  0  0  0  0  0
    2.3617   -0.8443    0.0000 C   0  0  0  0  0  0  0  0  0  0  0  0
    3.1867   -0.8443    0.0000 C   0  0  0  0  0  0  0  0  0  0  0  0
    3.5992   -1.5588    0.0000 C   0  0  0  0  0  0  0  0  0  0  0  0
    3.1867   -2.2733    0.0000 C   0  0  0  0  0  0  0  0  0  0  0  0
    3.1867   -3.7022    0.0000 C   0  0  0  0  0  0  0  0  0  0  0  0
    3.5992   -4.4167    0.0000 C   0  0  0  0  0  0  0  0  0  0  0  0
    4.4242   -4.4167    0.0000 Cl  0  0  0  0  0  0  0  0  0  0  0  0
    3.1867   -5.1312    0.0000 C   0  0  0  0  0  0  0  0  0  0  0  0
    2.3617   -5.1312    0.0000 C   0  0  0  0  0  0  0  0  0  0  0  0
   -1.9341   -5.0000    0.0000 C   0  0  0  0  0  0  0  0  0  0  0  0
   -1.9341   -5.8250    0.0000 O   0  0  0  0  0  0  0  0  0  0  0  0
   -2.5175   -4.4167    0.0000 C   0  0  0  0  0  0  0  0  0  0  0  0
   -3.3425   -4.4167    0.0000 O   0  0  0  0  0  0  0  0  0  0  0  0
  1  2  1  0  0  0  0
  2  3  1  0  0  0  0
  3  4  2  0  0  0  0
  4  5  1  0  0  0  0
  5  6  1  0  0  0  0
  6  7  1  0  0  0  0
  7  8  1  0  0  0  0
  8  9  1  0  0  0  0
  9 10  1  0  0  0  0
  5 10  1  0  0  0  0
  8 11  1  0  0  0  0
 11 12  2  0  0  0  0
 12 13  1  0  0  0  0
 13 14  1  0  0  0  0
 14 15  2  0  0  0  0
 15 16  1  0  0  0  0
 16 17  2  0  0  0  0
 17 18  1  0  0  0  0
 18 19  2  0  0  0  0
 14 19  1  0  0  0  0
 12 20  1  0  0  0  0
 20 21  2  0  0  0  0
 21 22  1  0  0  0  0
 21 23  1  0  0  0  0
 23 24  2  0  0  0  0
 11 24  1  0  0  0  0
  4 25  1  0  0  0  0
 25 26  2  0  0  0  0
 25 27  1  0  0  0  0
  3 27  1  0  0  0  0
 27 28  2  0  0  0  0
M  END
> <ID>
CPD_4075

$$$$
CPD_4080
  Mrv1822 09091914012D          

 39 44  0  0  0  0            999 V2000
   -4.0776   -7.5458    0.0000 C   0  0  0  0  0  0  0  0  0  0  0  0
   -3.3631   -7.9583    0.0000 O   0  0  0  0  0  0  0  0  0  0  0  0
   -3.3631   -8.7833    0.0000 C   0  0  0  0  0  0  0  0  0  0  0  0
   -2.7797   -9.3667    0.0000 C   0  0  0  0  0  0  0  0  0  0  0  0
   -1.9547   -9.3667    0.0000 N   0  0  0  0  0  0  0  0  0  0  0  0
   -1.5422   -8.6522    0.0000 C   0  0  0  0  0  0  0  0  0  0  0  0
   -0.7172   -8.6522    0.0000 C   0  0  0  0  0  0  0  0  0  0  0  0
   -0.3047   -9.3667    0.0000 N   0  0  0  0  0  0  0  0  0  0  0  0
   -0.7172  -10.0812    0.0000 C   0  0  0  0  0  0  0  0  0  0  0  0
   -1.5422  -10.0812    0.0000 C   0  0  0  0  0  0  0  0  0  0  0  0
    0.5203   -9.3667    0.0000 C   0  0  0  0  0  0  0  0  0  0  0  0
    0.9328   -8.6522    0.0000 C   0  0  0  0  0  0  0  0  0  0  0  0
    1.7578   -8.6522    0.0000 C   0  0  0  0  0  0  0  0  0  0  0  0
    2.1703   -9.3667    0.0000 C   0  0  0  0  0  0  0  0  0  0  0  0
    2.9953   -9.3667    0.0000 Cl  0  0  0  0  0  0  0  0  0  0  0  0
    1.7578  -10.0812    0.0000 C   0  0  0  0  0  0  0  0  0  0  0  0
    0.9328  -10.0812    0.0000 C   0  0  0  0  0  0  0  0  0  0  0  0
    2.1703   -7.9377    0.0000 C   0  0  0  0  0  0  0  0  0  0  0  0
    1.7578   -7.2233    0.0000 N   0  0  0  0  0  0  0  0  0  0  0  0
    2.1703   -6.5088    0.0000 N   0  0  0  0  0  0  0  0  0  0  0  0
    2.9953   -6.5088    0.0000 C   0  0  0  0  0  0  0  0  0  0  0  0
    3.4078   -7.2233    0.0000 C   0  0  0  0  0  0  0  0  0  0  0  0
    2.9953   -7.9377    0.0000 C   0  0  0  0  0  0  0  0  0  0  0  0
    3.4078   -5.7943    0.0000 N   0  0  0  0  0  0  0  0  0  0  0  0
    2.9953   -5.0799    0.0000 C   0  0  0  0  0  0  0  0  0  0  0  0
    3.4078   -4.3654    0.0000 C   0  0  0  0  0  0  0  0  0  0  0  0
    4.2328   -4.3654    0.0000 N   0  0  0  0  0  0  0  0  0  0  0  0
    4.6453   -5.0799    0.0000 C   0  0  0  0  0  0  0  0  0  0  0  0
    4.2328   -5.7943    0.0000 C   0  0  0  0  0  0  0  0  0  0  0  0
    4.6453   -3.6509    0.0000 C   0  0  0  0  0  0  0  0  0  0  0  0
    4.2328   -2.9364    0.0000 C   0  0  0  0  0  0  0  0  0  0  0  0
    4.6453   -2.2220    0.0000 C   0  0  0  0  0  0  0  0  0  0  0  0
    5.4703   -2.2220    0.0000 C   0  0  0  0  0  0  0  0  0  0  0  0
    5.8828   -2.9364    0.0000 C   0  0  0  0  0  0  0  0  0  0  0  0
    5.4703   -3.6509    0.0000 C   0  0  0  0  0  0  0  0  0  0  0  0
   -3.3631   -9.9500    0.0000 C   0  0  0  0  0  0  0  0  0  0  0  0
   -3.3631  -10.7750    0.0000 O   0  0  0  0  0  0  0  0  0  0  0  0
   -3.9465   -9.3667    0.0000 C   0  0  0  0  0  0  0  0  0  0  0  0
   -4.7715   -9.3667    0.0000 O   0  0  0  0  0  0  0  0  0  0  0  0
  1  2  1  0  0  0  0
  2  3  1  0  0  0  0
  3  4  2  0  0  0  0
  4  5  1  0  0  0  0
  5  6  1  0  0  0  0
  6  7  1  0  0  0  0
  7  8  1  0  0  0  0
  8  9  1  0  0  0  0
  9 10  1  0  0  0  0
  5 10  1  0  0  0  0
  8 11  1  0  0  0  0
 11 12  2  0  0  0  0
 12 13  1  0  0  0  0
 13 14  2  0  0  0  0
 14 15  1  0  0  0  0
 14 16  1  0  0  0  0
 16 17  2  0  0  0  0
 11 17  1  0  0  0  0
 13 18  1  0  0  0  0
 18 19  2  0  0  0  0
 19 20  1  0  0  0  0
 20 21  2  0  0  0  0
 21 22  1  0  0  0  0
 22 23  2  0  0  0  0
 18 23  1  0  0  0  0
 21 24  1  0  0  0  0
 24 25  1  0  0  0  0
 25 26  1  0  0  0  0
 26 27  1  0  0  0  0
 27 28  1  0  0  0  0
 28 29  1  0  0  0  0
 24 29  1  0  0  0  0
 27 30  1  0  0  0  0
 30 31  2  0  0  0  0
 31 32  1  0  0  0  0
 32 33  2  0  0  0  0
 33 34  1  0  0  0  0
 34 35  2  0  0  0  0
 30 35  1  0  0  0  0
  4 36  1  0  0  0  0
 36 37  2  0  0  0  0
 36 38  1  0  0  0  0
  3 38  1  0  0  0  0
 38 39  2  0  0  0  0
M  END
> <ID>
CPD_4080

$$$$
CPD_4085
  Mrv1822 09091914012D          

 34 37  0  0  0  0            999 V2000
   -1.9341   -3.8333    0.0000 C   0  0  0  0  0  0  0  0  0  0  0  0
   -1.2197   -4.2458    0.0000 O   0  0  0  0  0  0  0  0  0  0  0  0
   -1.2197   -5.0708    0.0000 C   0  0  0  0  0  0  0  0  0  0  0  0
   -0.6363   -5.6542    0.0000 C   0  0  0  0  0  0  0  0  0  0  0  0
    0.1887   -5.6542    0.0000 N   0  0  0  0  0  0  0  0  0  0  0  0
    0.6012   -4.9397    0.0000 C   0  0  0  0  0  0  0  0  0  0  0  0
    1.4262   -4.9397    0.0000 C   0  0  0  0  0  0  0  0  0  0  0  0
    1.8387   -5.6542    0.0000 N   0  0  0  0  0  0  0  0  0  0  0  0
    1.4262   -6.3687    0.0000 C   0  0  0  0  0  0  0  0  0  0  0  0
    0.6012   -6.3687    0.0000 C   0  0  0  0  0  0  0  0  0  0  0  0
    2.6637   -5.6542    0.0000 C   0  0  0  0  0  0  0  0  0  0  0  0
    3.0762   -4.9397    0.0000 C   0  0  0  0  0  0  0  0  0  0  0  0
    2.6637   -4.2252    0.0000 C   0  0  0  0  0  0  0  0  0  0  0  0
    3.0762   -3.5108    0.0000 C   0  0  0  0  0  0  0  0  0  0  0  0
    3.9012   -3.5108    0.0000 O   0  0  0  0  0  0  0  0  0  0  0  0
    2.6637   -2.7963    0.0000 N   0  0  0  0  0  0  0  0  0  0  0  0
    3.0762   -2.0818    0.0000 C   0  0  0  0  0  0  0  0  0  0  0  0
    2.6637   -1.3674    0.0000 C   0  0  0  0  0  0  0  0  0  0  0  0
    3.0762   -0.6529    0.0000 C   0  0  0  0  0  0  0  0  0  0  0  0
    2.6637    0.0616    0.0000 O   0  0  0  0  0  0  0  0  0  0  0  0
    3.0762    0.7761    0.0000 C   0  0  0  0  0  0  0  0  0  0  0  0
    3.9012   -0.6529    0.0000 C   0  0  0  0  0  0  0  0  0  0  0  0
    4.3137    0.0616    0.0000 Cl  0  0  0  0  0  0  0  0  0  0  0  0
    4.3137   -1.3674    0.0000 C   0  0  0  0  0  0  0  0  0  0  0  0
    3.9012   -2.0818    0.0000 C   0  0  0  0  0  0  0  0  0  0  0  0
    3.9012   -4.9397    0.0000 C   0  0  0  0  0  0  0  0  0  0  0  0
    4.3137   -5.6542    0.0000 C   0  0  0  0  0  0  0  0  0  0  0  0
    5.1387   -5.6542    0.0000 Cl  0  0  0  0  0  0  0  0  0  0  0  0
    3.9012   -6.3687    0.0000 C   0  0  0  0  0  0  0  0  0  0  0  0
    3.0762   -6.3687    0.0000 C   0  0  0  0  0  0  0  0  0  0  0  0
   -1.2197   -6.2375    0.0000 C   0  0  0  0  0  0  0  0  0  0  0  0
   -1.2197   -7.0625    0.0000 O   0  0  0  0  0  0  0  0  0  0  0  0
   -1.8030   -5.6542    0.0000 C   0  0  0  0  0  0  0  0  0  0  0  0
   -2.6280   -5.6542    0.0000 O   0  0  0  0  0  0  0  0  0  0  0  0
  1  2  1  0  0  0  0
  2  3  1  0  0  0  0
  3  4  2  0  0  0  0
  4  5  1  0  0  0  0
  5  6  1  0  0  0  0
  6  7  1  0  0  0  0
  7  8  1  0  0  0  0
  8  9  1  0  0  0  0
  9 10  1  0  0  0  0
  5 10  1  0  0  0  0
  8 11  1  0  0  0  0
 11 12  2  0  0  0  0
 12 13  1  0  0  0  0
 13 14  1  0  0  0  0
 14 15  2  0  0  0  0
 14 16  1  0  0  0  0
 16 17  1  0  0  0  0
 17 18  2  0  0  0  0
 18 19  1  0  0  0  0
 19 20  1  0  0  0  0
 20 21  1  0  0  0  0
 19 22  2  0  0  0  0
 22 23  1  0  0  0  0
 22 24  1  0  0  0  0
 24 25  2  0  0  0  0
 17 25  1  0  0  0  0
 12 26  1  0  0  0  0
 26 27  2  0  0  0  0
 27 28  1  0  0  0  0
 27 29  1  0  0  0  0
 29 30  2  0  0  0  0
 11 30  1  0  0  0  0
  4 31  1  0  0  0  0
 31 32  2  0  0  0  0
 31 33  1  0  0  0  0
  3 33  1  0  0  0  0
 33 34  2  0  0  0  0
M  END
> <ID>
CPD_4085

$$$$
CPD_4090
  Mrv1822 09091914012D          

 30 33  0  0  0  0            999 V2000
    0.0000   -2.4750    0.0000 C   0  0  0  0  0  0  0  0  0  0  0  0
    0.7145   -2.8875    0.0000 O   0  0  0  0  0  0  0  0  0  0  0  0
    0.7145   -3.7125    0.0000 C   0  0  0  0  0  0  0  0  0  0  0  0
    1.2978   -4.2959    0.0000 C   0  0  0  0  0  0  0  0  0  0  0  0
    2.1228   -4.2959    0.0000 N   0  0  0  0  0  0  0  0  0  0  0  0
    2.5353   -3.5814    0.0000 C   0  0  0  0  0  0  0  0  0  0  0  0
    3.3603   -3.5814    0.0000 C   0  0  0  0  0  0  0  0  0  0  0  0
    3.7728   -4.2959    0.0000 N   0  0  0  0  0  0  0  0  0  0  0  0
    3.3603   -5.0103    0.0000 C   0  0  0  0  0  0  0  0  0  0  0  0
    2.5353   -5.0103    0.0000 C   0  0  0  0  0  0  0  0  0  0  0  0
    4.5978   -4.2959    0.0000 C   0  0  0  0  0  0  0  0  0  0  0  0
    5.0103   -3.5814    0.0000 C   0  0  0  0  0  0  0  0  0  0  0  0
    5.8353   -3.5814    0.0000 C   0  0  0  0  0  0  0  0  0  0  0  0
    6.2478   -2.8669    0.0000 C   0  0  0  0  0  0  0  0  0  0  0  0
    7.0728   -2.8669    0.0000 C   0  0  0  0  0  0  0  0  0  0  0  0
    7.4853   -2.1525    0.0000 N   0  0  0  0  0  0  0  0  0  0  0  0
    7.1498   -1.3988    0.0000 C   0  0  0  0  0  0  0  0  0  0  0  0
    7.7629   -0.8467    0.0000 C   0  0  0  0  0  0  0  0  0  0  0  0
    8.4773   -1.2592    0.0000 C   0  0  0  0  0  0  0  0  0  0  0  0
    9.2310   -0.9237    0.0000 C   0  0  0  0  0  0  0  0  0  0  0  0
    9.3173   -0.1032    0.0000 N   0  0  0  0  0  0  0  0  0  0  0  0
    8.3058   -2.0662    0.0000 C   0  0  0  0  0  0  0  0  0  0  0  0
    6.2478   -4.2959    0.0000 C   0  0  0  0  0  0  0  0  0  0  0  0
    7.0728   -4.2959    0.0000 Cl  0  0  0  0  0  0  0  0  0  0  0  0
    5.8353   -5.0103    0.0000 C   0  0  0  0  0  0  0  0  0  0  0  0
    5.0103   -5.0103    0.0000 C   0  0  0  0  0  0  0  0  0  0  0  0
    0.7145   -4.8792    0.0000 C   0  0  0  0  0  0  0  0  0  0  0  0
    0.7145   -5.7042    0.0000 O   0  0  0  0  0  0  0  0  0  0  0  0
    0.1311   -4.2959    0.0000 C   0  0  0  0  0  0  0  0  0  0  0  0
   -0.6939   -4.2959    0.0000 O   0  0  0  0  0  0  0  0  0  0  0  0
  1  2  1  0  0  0  0
  2  3  1  0  0  0  0
  3  4  2  0  0  0  0
  4  5  1  0  0  0  0
  5  6  1  0  0  0  0
  6  7  1  0  0  0  0
  7  8  1  0  0  0  0
  8  9  1  0  0  0  0
  9 10  1  0  0  0  0
  5 10  1  0  0  0  0
  8 11  1  0  0  0  0
 11 12  2  0  0  0  0
 12 13  1  0  0  0  0
 13 14  1  0  0  0  0
 14 15  1  0  0  0  0
 15 16  1  0  0  0  0
 16 17  1  0  0  0  0
 17 18  1  0  0  0  0
 18 19  1  0  0  0  0
 19 20  1  0  0  0  0
 20 21  1  0  0  0  0
 19 22  1  0  0  0  0
 16 22  1  0  0  0  0
 13 23  2  0  0  0  0
 23 24  1  0  0  0  0
 23 25  1  0  0  0  0
 25 26  2  0  0  0  0
 11 26  1  0  0  0  0
  4 27  1  0  0  0  0
 27 28  2  0  0  0  0
 27 29  1  0  0  0  0
  3 29  1  0  0  0  0
 29 30  2  0  0  0  0
M  END
> <ID>
CPD_4090

$$$$
CPD_4095
  Mrv1822 09091914012D          

 31 34  0  0  0  0            999 V2000
   -0.7145    0.4125    0.0000 N   0  0  0  0  0  0  0  0  0  0  0  0
    0.0000   -0.0000    0.0000 C   0  0  0  0  0  0  0  0  0  0  0  0
    0.7145   -0.4125    0.0000 S   0  0  0  0  0  0  0  0  0  0  0  0
    0.7145   -1.2375    0.0000 C   0  0  0  0  0  0  0  0  0  0  0  0
    1.3819   -1.7224    0.0000 C   0  0  0  0  0  0  0  0  0  0  0  0
    1.1270   -2.5070    0.0000 N   0  0  0  0  0  0  0  0  0  0  0  0
    0.3020   -2.5070    0.0000 C   0  0  0  0  0  0  0  0  0  0  0  0
    0.0470   -1.7224    0.0000 C   0  0  0  0  0  0  0  0  0  0  0  0
   -0.7376   -1.4675    0.0000 S   0  0  0  0  0  0  0  0  0  0  0  0
   -0.9091   -0.6605    0.0000 C   0  0  0  0  0  0  0  0  0  0  0  0
   -1.0806    0.1465    0.0000 N   0  0  0  0  0  0  0  0  0  0  0  0
   -0.1830   -3.1745    0.0000 C   0  0  0  0  0  0  0  0  0  0  0  0
    0.1526   -3.9282    0.0000 C   0  0  0  0  0  0  0  0  0  0  0  0
   -0.3323   -4.5956    0.0000 C   0  0  0  0  0  0  0  0  0  0  0  0
   -1.1528   -4.5094    0.0000 C   0  0  0  0  0  0  0  0  0  0  0  0
   -1.4884   -3.7557    0.0000 C   0  0  0  0  0  0  0  0  0  0  0  0
   -1.0034   -3.0882    0.0000 C   0  0  0  0  0  0  0  0  0  0  0  0
   -1.6377   -5.1768    0.0000 C   0  0  0  0  0  0  0  0  0  0  0  0
   -1.3022   -5.9305    0.0000 C   0  0  0  0  0  0  0  0  0  0  0  0
   -1.7871   -6.5979    0.0000 N   0  0  0  0  0  0  0  0  0  0  0  0
   -2.6076   -6.5117    0.0000 C   0  0  0  0  0  0  0  0  0  0  0  0
   -2.9431   -5.7580    0.0000 C   0  0  0  0  0  0  0  0  0  0  0  0
   -2.4582   -5.0906    0.0000 C   0  0  0  0  0  0  0  0  0  0  0  0
   -3.7636   -5.6718    0.0000 C   0  0  0  0  0  0  0  0  0  0  0  0
   -4.5841   -5.5855    0.0000 N   0  0  0  0  0  0  0  0  0  0  0  0
    2.1665   -1.4675    0.0000 C   0  0  0  0  0  0  0  0  0  0  0  0
    2.3381   -0.6605    0.0000 C   0  0  0  0  0  0  0  0  0  0  0  0
    3.1227   -0.4056    0.0000 C   0  0  0  0  0  0  0  0  0  0  0  0
    3.7358   -0.9576    0.0000 C   0  0  0  0  0  0  0  0  0  0  0  0
    3.5642   -1.7646    0.0000 C   0  0  0  0  0  0  0  0  0  0  0  0
    2.7796   -2.0195    0.0000 C   0  0  0  0  0  0  0  0  0  0  0  0
  1  2  3  0  0  0  0
  2  3  1  0  0  0  0
  3  4  1  0  0  0  0
  4  5  2  0  0  0  0
  5  6  1  0  0  0  0
  6  7  1  0  0  0  0
  7  8  2  0  0  0  0
  4  8  1  0  0  0  0
  8  9  1  0  0  0  0
  9 10  1  0  0  0  0
 10 11  3  0  0  0  0
  7 12  1  0  0  0  0
 12 13  2  0  0  0  0
 13 14  1  0  0  0  0
 14 15  2  0  0  0  0
 15 16  1  0  0  0  0
 16 17  2  0  0  0  0
 12 17  1  0  0  0  0
 15 18  1  0  0  0  0
 18 19  2  0  0  0  0
 19 20  1  0  0  0  0
 20 21  2  0  0  0  0
 21 22  1  0  0  0  0
 22 23  2  0  0  0  0
 18 23  1  0  0  0  0
 22 24  1  0  0  0  0
 24 25  3  0  0  0  0
  5 26  1  0  0  0  0
 26 27  2  0  0  0  0
 27 28  1  0  0  0  0
 28 29  2  0  0  0  0
 29 30  1  0  0  0  0
 30 31  2  0  0  0  0
 26 31  1  0  0  0  0
M  END
> <ID>
CPD_4095

$$$$
CPD_4100
  Mrv1822 09091914012D          

 25 28  0  0  1  0            999 V2000
    6.0770   -0.3020    0.0000 N   0  0  0  0  0  0  0  0  0  0  0  0
    5.6645    0.4125    0.0000 C   0  0  2  0  0  0  0  0  0  0  0  0
    6.0770    1.1270    0.0000 C   0  0  0  0  0  0  0  0  0  0  0  0
    5.6645    1.8414    0.0000 C   0  0  0  0  0  0  0  0  0  0  0  0
    6.0770    2.5559    0.0000 C   0  0  0  0  0  0  0  0  0  0  0  0
    6.9020    2.5559    0.0000 C   0  0  0  0  0  0  0  0  0  0  0  0
    7.3145    1.8414    0.0000 C   0  0  0  0  0  0  0  0  0  0  0  0
    6.9020    1.1270    0.0000 C   0  0  0  0  0  0  0  0  0  0  0  0
    4.8395    0.4125    0.0000 C   0  0  0  0  0  0  0  0  0  0  0  0
    4.8395    1.2375    0.0000 F   0  0  0  0  0  0  0  0  0  0  0  0
    4.8395   -0.4125    0.0000 F   0  0  0  0  0  0  0  0  0  0  0  0
    4.0145    0.4125    0.0000 C   0  0  0  0  0  0  0  0  0  0  0  0
    3.6020   -0.3020    0.0000 C   0  0  0  0  0  0  0  0  0  0  0  0
    2.7770   -0.3020    0.0000 C   0  0  0  0  0  0  0  0  0  0  0  0
    2.3645    0.4125    0.0000 C   0  0  0  0  0  0  0  0  0  0  0  0
    2.7770    1.1270    0.0000 C   0  0  0  0  0  0  0  0  0  0  0  0
    3.6020    1.1270    0.0000 C   0  0  0  0  0  0  0  0  0  0  0  0
    1.5395    0.4125    0.0000 C   0  0  0  0  0  0  0  0  0  0  0  0
    1.1270   -0.3020    0.0000 C   0  0  0  0  0  0  0  0  0  0  0  0
    0.3020   -0.3020    0.0000 C   0  0  0  0  0  0  0  0  0  0  0  0
   -0.1105    0.4125    0.0000 C   0  0  0  0  0  0  0  0  0  0  0  0
    0.3020    1.1270    0.0000 C   0  0  0  0  0  0  0  0  0  0  0  0
    1.1270    1.1270    0.0000 C   0  0  0  0  0  0  0  0  0  0  0  0
    1.5395   -1.0164    0.0000 C   0  0  0  0  0  0  0  0  0  0  0  0
    2.3645   -1.0164    0.0000 N   0  0  0  0  0  0  0  0  0  0  0  0
  2  1  1  1  0  0  0
  2  3  1  0  0  0  0
  3  4  1  0  0  0  0
  4  5  1  0  0  0  0
  5  6  1  0  0  0  0
  6  7  1  0  0  0  0
  7  8  1  0  0  0  0
  3  8  1  0  0  0  0
  2  9  1  0  0  0  0
  9 10  1  0  0  0  0
  9 11  1  0  0  0  0
  9 12  1  0  0  0  0
 12 13  2  0  0  0  0
 13 14  1  0  0  0  0
 14 15  2  0  0  0  0
 15 16  1  0  0  0  0
 16 17  2  0  0  0  0
 12 17  1  0  0  0  0
 15 18  1  0  0  0  0
 18 19  2  0  0  0  0
 19 20  1  0  0  0  0
 20 21  1  0  0  0  0
 21 22  1  0  0  0  0
 22 23  1  0  0  0  0
 18 23  1  0  0  0  0
 19 24  1  0  0  0  0
 24 25  2  0  0  0  0
 14 25  1  0  0  0  0
M  END
> <ID>
CPD_4100

$$$$
CPD_4105
  Mrv1822 09091914012D          

 30 34  0  0  1  0            999 V2000
   -3.6373    0.6213    0.0000 F   0  0  0  0  0  0  0  0  0  0  0  0
   -2.9699    0.1364    0.0000 C   0  0  0  0  0  0  0  0  0  0  0  0
   -2.2162    0.4719    0.0000 C   0  0  0  0  0  0  0  0  0  0  0  0
   -2.1300    1.2924    0.0000 F   0  0  0  0  0  0  0  0  0  0  0  0
   -1.5488   -0.0130    0.0000 C   0  0  0  0  0  0  0  0  0  0  0  0
   -0.7951    0.3225    0.0000 F   0  0  0  0  0  0  0  0  0  0  0  0
   -1.6350   -0.8335    0.0000 C   0  0  0  0  0  0  0  0  0  0  0  0
   -2.3887   -1.1690    0.0000 C   0  0  0  0  0  0  0  0  0  0  0  0
   -3.0561   -0.6841    0.0000 C   0  0  0  0  0  0  0  0  0  0  0  0
   -0.9676   -1.3184    0.0000 C   0  0  0  0  0  0  0  0  0  0  0  0
   -0.1830   -1.0635    0.0000 N   0  0  0  0  0  0  0  0  0  0  0  0
    0.3020   -1.7309    0.0000 C   0  0  2  0  0  0  0  0  0  0  0  0
   -0.1830   -2.3984    0.0000 C   0  0  0  0  0  0  0  0  0  0  0  0
   -0.9676   -2.1434    0.0000 S   0  0  0  0  0  0  0  0  0  0  0  0
    1.1270   -1.7309    0.0000 C   0  0  0  0  0  0  0  0  0  0  0  0
    1.5395   -2.4454    0.0000 O   0  0  0  0  0  0  0  0  0  0  0  0
    1.5395   -1.0164    0.0000 C   0  0  0  0  0  0  0  0  0  0  0  0
    2.3645   -1.0164    0.0000 N   0  0  0  0  0  0  0  0  0  0  0  0
    2.7770   -0.3020    0.0000 C   0  0  0  0  0  0  0  0  0  0  0  0
    2.3645    0.4125    0.0000 C   0  0  0  0  0  0  0  0  0  0  0  0
    2.7770    1.1270    0.0000 C   0  0  0  0  0  0  0  0  0  0  0  0
    3.6020    1.1270    0.0000 C   0  0  0  0  0  0  0  0  0  0  0  0
    4.0145    0.4125    0.0000 C   0  0  0  0  0  0  0  0  0  0  0  0
    3.6020   -0.3020    0.0000 C   0  0  0  0  0  0  0  0  0  0  0  0
    1.5395    0.4125    0.0000 C   0  0  0  0  0  0  0  0  0  0  0  0
    1.1270   -0.3020    0.0000 C   0  0  0  0  0  0  0  0  0  0  0  0
    0.3020   -0.3020    0.0000 C   0  0  0  0  0  0  0  0  0  0  0  0
   -0.1105    0.4125    0.0000 C   0  0  0  0  0  0  0  0  0  0  0  0
    0.3020    1.1270    0.0000 C   0  0  0  0  0  0  0  0  0  0  0  0
    1.1270    1.1270    0.0000 C   0  0  0  0  0  0  0  0  0  0  0  0
  1  2  1  0  0  0  0
  2  3  2  0  0  0  0
  3  4  1  0  0  0  0
  3  5  1  0  0  0  0
  5  6  1  0  0  0  0
  5  7  2  0  0  0  0
  7  8  1  0  0  0  0
  8  9  2  0  0  0  0
  2  9  1  0  0  0  0
  7 10  1  0  0  0  0
 10 11  1  0  0  0  0
 12 11  1  0  0  0  0
 12 13  1  0  0  0  0
 13 14  1  0  0  0  0
 10 14  1  0  0  0  0
 12 15  1  1  0  0  0
 15 16  2  0  0  0  0
 15 17  1  0  0  0  0
 17 18  2  0  0  0  0
 18 19  1  0  0  0  0
 19 20  2  0  0  0  0
 20 21  1  0  0  0  0
 21 22  2  0  0  0  0
 22 23  1  0  0  0  0
 23 24  2  0  0  0  0
 19 24  1  0  0  0  0
 20 25  1  0  0  0  0
 25 26  2  0  0  0  0
 17 26  1  0  0  0  0
 26 27  1  0  0  0  0
 27 28  1  0  0  0  0
 28 29  1  0  0  0  0
 29 30  1  0  0  0  0
 25 30  1  0  0  0  0
M  END
> <ID>
CPD_4105

$$$$
CPD_4110
  Mrv1822 09091914012D          

 23 26  0  0  0  0            999 V2000
    8.1395   -1.0164    0.0000 N   0  0  0  0  0  0  0  0  0  0  0  0
    7.3145   -1.0164    0.0000 C   0  0  0  0  0  0  0  0  0  0  0  0
    6.4895   -1.0164    0.0000 C   0  0  0  0  0  0  0  0  0  0  0  0
    6.0770   -1.7309    0.0000 C   0  0  0  0  0  0  0  0  0  0  0  0
    5.2520   -1.7309    0.0000 C   0  0  0  0  0  0  0  0  0  0  0  0
    4.8395   -1.0164    0.0000 C   0  0  0  0  0  0  0  0  0  0  0  0
    4.0145   -1.0164    0.0000 C   0  0  0  0  0  0  0  0  0  0  0  0
    3.6020   -0.3020    0.0000 C   0  0  0  0  0  0  0  0  0  0  0  0
    2.7770   -0.3020    0.0000 C   0  0  0  0  0  0  0  0  0  0  0  0
    2.3645    0.4125    0.0000 C   0  0  0  0  0  0  0  0  0  0  0  0
    2.7770    1.1270    0.0000 C   0  0  0  0  0  0  0  0  0  0  0  0
    3.6020    1.1270    0.0000 C   0  0  0  0  0  0  0  0  0  0  0  0
    4.0145    0.4125    0.0000 C   0  0  0  0  0  0  0  0  0  0  0  0
    2.3645    1.8414    0.0000 N   0  0  0  0  0  0  0  0  0  0  0  0
    1.5395    1.8414    0.0000 C   0  0  0  0  0  0  0  0  0  0  0  0
    1.1270    1.1270    0.0000 C   0  0  0  0  0  0  0  0  0  0  0  0
    1.5395    0.4125    0.0000 C   0  0  0  0  0  0  0  0  0  0  0  0
    1.1270   -0.3020    0.0000 C   0  0  0  0  0  0  0  0  0  0  0  0
    0.3020   -0.3020    0.0000 C   0  0  0  0  0  0  0  0  0  0  0  0
   -0.1105    0.4125    0.0000 C   0  0  0  0  0  0  0  0  0  0  0  0
    0.3020    1.1270    0.0000 C   0  0  0  0  0  0  0  0  0  0  0  0
    5.2520   -0.3020    0.0000 C   0  0  0  0  0  0  0  0  0  0  0  0
    6.0770   -0.3020    0.0000 C   0  0  0  0  0  0  0  0  0  0  0  0
  1  2  3  0  0  0  0
  2  3  1  0  0  0  0
  3  4  2  0  0  0  0
  4  5  1  0  0  0  0
  5  6  2  0  0  0  0
  6  7  1  0  0  0  0
  7  8  1  0  0  0  0
  8  9  2  0  0  0  0
  9 10  1  0  0  0  0
 10 11  2  0  0  0  0
 11 12  1  0  0  0  0
 12 13  2  0  0  0  0
  8 13  1  0  0  0  0
 11 14  1  0  0  0  0
 14 15  2  0  0  0  0
 15 16  1  0  0  0  0
 16 17  2  0  0  0  0
 10 17  1  0  0  0  0
 17 18  1  0  0  0  0
 18 19  1  0  0  0  0
 19 20  1  0  0  0  0
 20 21  1  0  0  0  0
 16 21  1  0  0  0  0
  6 22  1  0  0  0  0
 22 23  2  0  0  0  0
  3 23  1  0  0  0  0
M  END
> <ID>
CPD_4110

$$$$
CPD_4115
  Mrv1822 09091914012D          

 14 15  0  0  0  0            999 V2000
    0.5420    0.2323    0.0000 F   0  0  0  0  0  0  0  0  0  0  0  0
    1.2564   -0.1802    0.0000 C   0  0  0  0  0  0  0  0  0  0  0  0
    1.9709    0.2323    0.0000 F   0  0  0  0  0  0  0  0  0  0  0  0
    1.2564   -1.0052    0.0000 C   0  0  0  0  0  0  0  0  0  0  0  0
    1.9239   -1.4901    0.0000 N   0  0  0  0  0  0  0  0  0  0  0  0
    1.6689   -2.2748    0.0000 C   0  0  0  0  0  0  0  0  0  0  0  0
    0.8439   -2.2748    0.0000 S   0  0  0  0  0  0  0  0  0  0  0  0
    0.5890   -1.4901    0.0000 C   0  0  0  0  0  0  0  0  0  0  0  0
   -0.1956   -1.2352    0.0000 Br  0  0  0  0  0  0  0  0  0  0  0  0
    2.1538   -2.9422    0.0000 C   0  0  0  0  0  0  0  0  0  0  0  0
    2.9788   -2.9422    0.0000 C   0  0  0  0  0  0  0  0  0  0  0  0
    3.2338   -3.7268    0.0000 N   0  0  0  0  0  0  0  0  0  0  0  0
    2.5663   -4.2117    0.0000 C   0  0  0  0  0  0  0  0  0  0  0  0
    1.8989   -3.7268    0.0000 N   0  0  0  0  0  0  0  0  0  0  0  0
  1  2  1  0  0  0  0
  2  3  1  0  0  0  0
  2  4  1  0  0  0  0
  4  5  4  0  0  0  0
  5  6  4  0  0  0  0
  6  7  4  0  0  0  0
  7  8  4  0  0  0  0
  4  8  4  0  0  0  0
  8  9  1  0  0  0  0
  6 10  1  0  0  0  0
 10 11  4  0  0  0  0
 11 12  4  0  0  0  0
 12 13  4  0  0  0  0
 13 14  4  0  0  0  0
 10 14  4  0  0  0  0
M  STY  1   1 DAT
M  SAL   1  1  12
M  SDT   1 MRV_IMPLICIT_H                                        
M  SDD   1     0.5304   -0.4125    DR    ALL  0       0  
M  SED   1 IMPL_H1
M  END
> <ID>
CPD_4115

$$$$
CPD_4120
  Mrv1822 09091914012D          

 28 30  0  0  0  0            999 V2000
   -0.5955   -2.2155    0.0000 C   0  0  0  0  0  0  0  0  0  0  0  0
   -0.5955   -3.0405    0.0000 O   0  0  0  0  0  0  0  0  0  0  0  0
   -1.3099   -3.4530    0.0000 C   0  0  0  0  0  0  0  0  0  0  0  0
   -2.0244   -3.0405    0.0000 O   0  0  0  0  0  0  0  0  0  0  0  0
   -1.3099   -4.2780    0.0000 C   0  0  0  0  0  0  0  0  0  0  0  0
   -0.6425   -4.7629    0.0000 C   0  0  0  0  0  0  0  0  0  0  0  0
   -0.8974   -5.5475    0.0000 C   0  0  0  0  0  0  0  0  0  0  0  0
   -1.7224   -5.5475    0.0000 C   0  0  0  0  0  0  0  0  0  0  0  0
   -1.9774   -4.7629    0.0000 S   0  0  0  0  0  0  0  0  0  0  0  0
   -2.2073   -6.2149    0.0000 C   0  0  0  0  0  0  0  0  0  0  0  0
   -1.9524   -6.9996    0.0000 N   0  0  0  0  0  0  0  0  0  0  0  0
   -2.6198   -7.4845    0.0000 C   0  0  0  0  0  0  0  0  0  0  0  0
   -2.6198   -8.3095    0.0000 C   0  0  0  0  0  0  0  0  0  0  0  0
   -3.3343   -8.7220    0.0000 C   0  0  0  0  0  0  0  0  0  0  0  0
   -3.3343   -9.5470    0.0000 N   0  0  0  0  0  0  0  0  0  0  0  0
   -2.6198   -9.9595    0.0000 C   0  0  0  0  0  0  0  0  0  0  0  0
   -2.6198  -10.7845    0.0000 C   0  0  0  0  0  0  0  0  0  0  0  0
   -3.3343  -11.1970    0.0000 C   0  0  0  0  0  0  0  0  0  0  0  0
   -4.0488  -10.7845    0.0000 C   0  0  0  0  0  0  0  0  0  0  0  0
   -4.0488   -9.9595    0.0000 C   0  0  0  0  0  0  0  0  0  0  0  0
   -4.7633   -9.5470    0.0000 O   0  0  0  0  0  0  0  0  0  0  0  0
   -4.7633  -11.1970    0.0000 C   0  0  0  0  0  0  0  0  0  0  0  0
   -5.4777  -11.6095    0.0000 F   0  0  0  0  0  0  0  0  0  0  0  0
   -5.1758  -10.4825    0.0000 F   0  0  0  0  0  0  0  0  0  0  0  0
   -4.3508  -11.9115    0.0000 F   0  0  0  0  0  0  0  0  0  0  0  0
   -3.2873   -6.9996    0.0000 S   0  0  0  0  0  0  0  0  0  0  0  0
   -3.0323   -6.2149    0.0000 C   0  0  0  0  0  0  0  0  0  0  0  0
   -3.5173   -5.5475    0.0000 Br  0  0  0  0  0  0  0  0  0  0  0  0
  1  2  1  0  0  0  0
  2  3  1  0  0  0  0
  3  4  2  0  0  0  0
  3  5  1  0  0  0  0
  5  6  4  0  0  0  0
  6  7  4  0  0  0  0
  7  8  4  0  0  0  0
  8  9  4  0  0  0  0
  5  9  4  0  0  0  0
  8 10  1  0  0  0  0
 10 11  4  0  0  0  0
 11 12  4  0  0  0  0
 12 13  1  0  0  0  0
 13 14  1  0  0  0  0
 14 15  1  0  0  0  0
 15 16  4  0  0  0  0
 16 17  4  0  0  0  0
 17 18  4  0  0  0  0
 18 19  4  0  0  0  0
 19 20  4  0  0  0  0
 15 20  4  0  0  0  0
 20 21  2  0  0  0  0
 19 22  1  0  0  0  0
 22 23  1  0  0  0  0
 22 24  1  0  0  0  0
 22 25  1  0  0  0  0
 12 26  4  0  0  0  0
 26 27  4  0  0  0  0
 10 27  4  0  0  0  0
 27 28  1  0  0  0  0
M  END
> <ID>
CPD_4120

$$$$
CPD_4125
  Mrv1822 09091914012D          

 21 23  0  0  0  0            999 V2000
    2.0367    2.0009    0.0000 C   0  0  0  0  0  0  0  0  0  0  0  0
    2.0367    1.1759    0.0000 C   0  0  0  0  0  0  0  0  0  0  0  0
    2.7512    0.7634    0.0000 C   0  0  0  0  0  0  0  0  0  0  0  0
    2.7512   -0.0616    0.0000 C   0  0  0  0  0  0  0  0  0  0  0  0
    3.4656   -0.4741    0.0000 C   0  0  0  0  0  0  0  0  0  0  0  0
    2.0367   -0.4741    0.0000 C   0  0  0  0  0  0  0  0  0  0  0  0
    1.3222   -0.0616    0.0000 C   0  0  0  0  0  0  0  0  0  0  0  0
    1.3222    0.7634    0.0000 C   0  0  0  0  0  0  0  0  0  0  0  0
    0.6078    1.1759    0.0000 C   0  0  0  0  0  0  0  0  0  0  0  0
    2.0367   -1.2991    0.0000 C   0  0  0  0  0  0  0  0  0  0  0  0
    2.7041   -1.7840    0.0000 C   0  0  0  0  0  0  0  0  0  0  0  0
    2.4492   -2.5687    0.0000 S   0  0  0  0  0  0  0  0  0  0  0  0
    1.6242   -2.5687    0.0000 C   0  0  0  0  0  0  0  0  0  0  0  0
    1.1393   -3.2361    0.0000 N   0  0  0  0  0  0  0  0  0  0  0  0
    0.3188   -3.1499    0.0000 C   0  0  0  0  0  0  0  0  0  0  0  0
   -0.1661   -3.8173    0.0000 C   0  0  0  0  0  0  0  0  0  0  0  0
   -0.9866   -3.7311    0.0000 C   0  0  0  0  0  0  0  0  0  0  0  0
   -1.3222   -2.9774    0.0000 C   0  0  0  0  0  0  0  0  0  0  0  0
   -0.8372   -2.3099    0.0000 N   0  0  0  0  0  0  0  0  0  0  0  0
   -0.0168   -2.3962    0.0000 C   0  0  0  0  0  0  0  0  0  0  0  0
    1.3693   -1.7840    0.0000 N   0  0  0  0  0  0  0  0  0  0  0  0
  1  2  1  0  0  0  0
  2  3  4  0  0  0  0
  3  4  4  0  0  0  0
  4  5  1  0  0  0  0
  4  6  4  0  0  0  0
  6  7  4  0  0  0  0
  7  8  4  0  0  0  0
  2  8  4  0  0  0  0
  8  9  1  0  0  0  0
  6 10  1  0  0  0  0
 10 11  4  0  0  0  0
 11 12  4  0  0  0  0
 12 13  4  0  0  0  0
 13 14  1  0  0  0  0
 14 15  1  0  0  0  0
 15 16  4  0  0  0  0
 16 17  4  0  0  0  0
 17 18  4  0  0  0  0
 18 19  4  0  0  0  0
 19 20  4  0  0  0  0
 15 20  4  0  0  0  0
 13 21  4  0  0  0  0
 10 21  4  0  0  0  0
M  END
> <ID>
CPD_4125

$$$$
CPD_4130
  Mrv1822 09091914012D          

 34 37  0  0  0  0            999 V2000
   -5.0013   -3.7125    0.0000 C   0  0  0  0  0  0  0  0  0  0  0  0
   -5.0013   -2.8875    0.0000 C   0  0  0  0  0  0  0  0  0  0  0  0
   -4.2868   -2.4750    0.0000 O   0  0  0  0  0  0  0  0  0  0  0  0
   -4.2868   -1.6500    0.0000 C   0  0  0  0  0  0  0  0  0  0  0  0
   -5.0013   -1.2375    0.0000 O   0  0  0  0  0  0  0  0  0  0  0  0
   -3.5724   -1.2375    0.0000 C   0  0  0  0  0  0  0  0  0  0  0  0
   -3.5724   -0.4125    0.0000 C   0  0  0  0  0  0  0  0  0  0  0  0
   -2.8579    0.0000    0.0000 C   0  0  0  0  0  0  0  0  0  0  0  0
   -2.1434   -0.4125    0.0000 C   0  0  0  0  0  0  0  0  0  0  0  0
   -1.4289    0.0000    0.0000 N   0  0  0  0  0  0  0  0  0  0  0  0
   -0.7145   -0.4125    0.0000 C   0  0  0  0  0  0  0  0  0  0  0  0
   -0.7145   -1.2375    0.0000 O   0  0  0  0  0  0  0  0  0  0  0  0
   -0.0000    0.0000    0.0000 C   0  0  0  0  0  0  0  0  0  0  0  0
    0.7145   -0.4125    0.0000 C   0  0  0  0  0  0  0  0  0  0  0  0
    0.5082    0.4125    0.0000 C   0  0  0  0  0  0  0  0  0  0  0  0
    0.7145    1.2375    0.0000 C   0  0  0  0  0  0  0  0  0  0  0  0
    1.4289    0.8250    0.0000 C   0  0  0  0  0  0  0  0  0  0  0  0
    1.4289    0.0000    0.0000 C   0  0  0  0  0  0  0  0  0  0  0  0
    2.1434   -0.4125    0.0000 C   0  0  0  0  0  0  0  0  0  0  0  0
    2.8579    0.0000    0.0000 C   0  0  0  0  0  0  0  0  0  0  0  0
    2.8579    0.8250    0.0000 N   0  0  0  0  0  0  0  0  0  0  0  0
    3.5724   -0.4125    0.0000 C   0  0  0  0  0  0  0  0  0  0  0  0
    3.5724   -1.2375    0.0000 C   0  0  0  0  0  0  0  0  0  0  0  0
    2.8579   -1.6500    0.0000 C   0  0  0  0  0  0  0  0  0  0  0  0
    2.8579   -2.4750    0.0000 S   0  0  0  0  0  0  0  0  0  0  0  0
    3.5724   -2.8875    0.0000 C   0  0  0  0  0  0  0  0  0  0  0  0
    4.2868   -3.3000    0.0000 N   0  0  0  0  0  0  0  0  0  0  0  0
    2.1434   -1.2375    0.0000 C   0  0  0  0  0  0  0  0  0  0  0  0
    0.0000    0.8250    0.0000 C   0  0  0  0  0  0  0  0  0  0  0  0
   -0.7145    1.2375    0.0000 C   0  0  0  0  0  0  0  0  0  0  0  0
   -1.4289    0.8250    0.0000 O   0  0  0  0  0  0  0  0  0  0  0  0
   -0.7145    2.0625    0.0000 O   0  0  0  0  0  0  0  0  0  0  0  0
   -2.1434   -1.2375    0.0000 C   0  0  0  0  0  0  0  0  0  0  0  0
   -2.8579   -1.6500    0.0000 C   0  0  0  0  0  0  0  0  0  0  0  0
  1  2  1  0  0  0  0
  2  3  1  0  0  0  0
  3  4  1  0  0  0  0
  4  5  2  0  0  0  0
  4  6  1  0  0  0  0
  6  7  2  0  0  0  0
  7  8  1  0  0  0  0
  8  9  2  0  0  0  0
  9 10  1  0  0  0  0
 10 11  1  0  0  0  0
 11 12  2  0  0  0  0
 11 13  1  0  0  0  0
 13 14  1  0  0  0  0
 14 15  1  0  0  0  0
 15 16  1  0  0  0  0
 16 17  1  0  0  0  0
 17 18  2  0  0  0  0
 14 18  1  0  0  0  0
 18 19  1  0  0  0  0
 19 20  2  0  0  0  0
 20 21  1  0  0  0  0
 20 22  1  0  0  0  0
 22 23  2  0  0  0  0
 23 24  1  0  0  0  0
 24 25  1  0  0  0  0
 25 26  1  0  0  0  0
 26 27  3  0  0  0  0
 24 28  2  0  0  0  0
 19 28  1  0  0  0  0
 16 29  1  0  0  0  0
 13 29  1  0  0  0  0
 29 30  1  0  0  0  0
 30 31  1  0  0  0  0
 30 32  2  0  0  0  0
  9 33  1  0  0  0  0
 33 34  2  0  0  0  0
  6 34  1  0  0  0  0
M  END
> <ID>
CPD_4130

$$$$
CPD_4135
  Mrv1822 09091914012D          

 39 43  0  0  0  0            999 V2000
   -1.2654    0.5418    0.0000 C   0  0  0  0  0  0  0  0  0  0  0  0
   -0.5510    0.9543    0.0000 C   0  0  0  0  0  0  0  0  0  0  0  0
    0.1635    0.5418    0.0000 C   0  0  0  0  0  0  0  0  0  0  0  0
    0.8780    0.9543    0.0000 C   0  0  0  0  0  0  0  0  0  0  0  0
    0.8780    1.7793    0.0000 N   0  0  0  0  0  0  0  0  0  0  0  0
    1.5925    2.1918    0.0000 C   0  0  0  0  0  0  0  0  0  0  0  0
    1.5925    3.0168    0.0000 C   0  0  0  0  0  0  0  0  0  0  0  0
    2.3069    3.4293    0.0000 C   0  0  0  0  0  0  0  0  0  0  0  0
    3.0214    3.0168    0.0000 C   0  0  0  0  0  0  0  0  0  0  0  0
    3.0214    2.1918    0.0000 C   0  0  0  0  0  0  0  0  0  0  0  0
    2.3069    1.7793    0.0000 C   0  0  0  0  0  0  0  0  0  0  0  0
    2.3069    0.9543    0.0000 C   0  0  0  0  0  0  0  0  0  0  0  0
    1.5925    0.5418    0.0000 C   0  0  0  0  0  0  0  0  0  0  0  0
    3.0214    0.5418    0.0000 C   0  0  0  0  0  0  0  0  0  0  0  0
    3.0214   -0.2832    0.0000 C   0  0  0  0  0  0  0  0  0  0  0  0
    3.7359   -0.6957    0.0000 C   0  0  0  0  0  0  0  0  0  0  0  0
    3.5296    0.1293    0.0000 C   0  0  0  0  0  0  0  0  0  0  0  0
    3.7359    0.9543    0.0000 C   0  0  0  0  0  0  0  0  0  0  0  0
    4.4503    0.5418    0.0000 C   0  0  0  0  0  0  0  0  0  0  0  0
    4.4503   -0.2832    0.0000 C   0  0  0  0  0  0  0  0  0  0  0  0
    5.1648   -0.6957    0.0000 C   0  0  0  0  0  0  0  0  0  0  0  0
    5.1648   -1.5207    0.0000 O   0  0  0  0  0  0  0  0  0  0  0  0
    5.8793   -0.2832    0.0000 O   0  0  0  0  0  0  0  0  0  0  0  0
    5.1648    0.9543    0.0000 C   0  0  0  0  0  0  0  0  0  0  0  0
    5.8793    0.5418    0.0000 O   0  0  0  0  0  0  0  0  0  0  0  0
    5.1648    1.7793    0.0000 N   0  0  0  0  0  0  0  0  0  0  0  0
    5.8793    2.1918    0.0000 C   0  0  0  0  0  0  0  0  0  0  0  0
    5.8793    3.0168    0.0000 C   0  0  0  0  0  0  0  0  0  0  0  0
    6.5938    3.4293    0.0000 C   0  0  0  0  0  0  0  0  0  0  0  0
    7.3082    3.0168    0.0000 C   0  0  0  0  0  0  0  0  0  0  0  0
    7.3082    2.1918    0.0000 C   0  0  0  0  0  0  0  0  0  0  0  0
    6.5938    1.7793    0.0000 C   0  0  0  0  0  0  0  0  0  0  0  0
    8.0227    3.4293    0.0000 C   0  0  0  0  0  0  0  0  0  0  0  0
    8.7372    3.0168    0.0000 O   0  0  0  0  0  0  0  0  0  0  0  0
    8.0227    4.2543    0.0000 O   0  0  0  0  0  0  0  0  0  0  0  0
    8.7372    4.6668    0.0000 C   0  0  0  0  0  0  0  0  0  0  0  0
    8.7372    5.4918    0.0000 C   0  0  0  0  0  0  0  0  0  0  0  0
    3.7359    3.4293    0.0000 C   0  0  0  0  0  0  0  0  0  0  0  0
    4.4503    3.8418    0.0000 N   0  0  0  0  0  0  0  0  0  0  0  0
  1  2  1  0  0  0  0
  2  3  1  0  0  0  0
  3  4  1  0  0  0  0
  4  5  2  0  0  0  0
  5  6  1  0  0  0  0
  6  7  2  0  0  0  0
  7  8  1  0  0  0  0
  8  9  2  0  0  0  0
  9 10  1  0  0  0  0
 10 11  2  0  0  0  0
  6 11  1  0  0  0  0
 11 12  1  0  0  0  0
 12 13  2  0  0  0  0
  4 13  1  0  0  0  0
 12 14  1  0  0  0  0
 14 15  2  0  0  0  0
 15 16  1  0  0  0  0
 16 17  1  0  0  0  0
 17 18  1  0  0  0  0
 14 18  1  0  0  0  0
 18 19  1  0  0  0  0
 19 20  1  0  0  0  0
 16 20  1  0  0  0  0
 20 21  1  0  0  0  0
 21 22  1  0  0  0  0
 21 23  2  0  0  0  0
 19 24  1  0  0  0  0
 24 25  2  0  0  0  0
 24 26  1  0  0  0  0
 26 27  1  0  0  0  0
 27 28  2  0  0  0  0
 28 29  1  0  0  0  0
 29 30  2  0  0  0  0
 30 31  1  0  0  0  0
 31 32  2  0  0  0  0
 27 32  1  0  0  0  0
 30 33  1  0  0  0  0
 33 34  2  0  0  0  0
 33 35  1  0  0  0  0
 35 36  1  0  0  0  0
 36 37  1  0  0  0  0
  9 38  1  0  0  0  0
 38 39  3  0  0  0  0
M  END
> <ID>
CPD_4135

$$$$
CPD_4140
  Mrv1822 09091914012D          

 36 40  0  0  0  0            999 V2000
   -7.8592   -6.1875    0.0000 C   0  0  0  0  0  0  0  0  0  0  0  0
   -7.8592   -5.3625    0.0000 C   0  0  0  0  0  0  0  0  0  0  0  0
   -7.1447   -4.9500    0.0000 O   0  0  0  0  0  0  0  0  0  0  0  0
   -7.1447   -4.1250    0.0000 C   0  0  0  0  0  0  0  0  0  0  0  0
   -7.8592   -3.7125    0.0000 O   0  0  0  0  0  0  0  0  0  0  0  0
   -6.4302   -3.7125    0.0000 C   0  0  0  0  0  0  0  0  0  0  0  0
   -6.4302   -2.8875    0.0000 C   0  0  0  0  0  0  0  0  0  0  0  0
   -5.7158   -2.4750    0.0000 C   0  0  0  0  0  0  0  0  0  0  0  0
   -5.0013   -2.8875    0.0000 C   0  0  0  0  0  0  0  0  0  0  0  0
   -4.2868   -2.4750    0.0000 N   0  0  0  0  0  0  0  0  0  0  0  0
   -3.5724   -2.8875    0.0000 C   0  0  0  0  0  0  0  0  0  0  0  0
   -3.5724   -3.7125    0.0000 O   0  0  0  0  0  0  0  0  0  0  0  0
   -2.8579   -2.4750    0.0000 C   0  0  0  0  0  0  0  0  0  0  0  0
   -2.1434   -2.8875    0.0000 C   0  0  0  0  0  0  0  0  0  0  0  0
   -2.3497   -2.0625    0.0000 C   0  0  0  0  0  0  0  0  0  0  0  0
   -2.1434   -1.2375    0.0000 C   0  0  0  0  0  0  0  0  0  0  0  0
   -2.8579   -1.6500    0.0000 C   0  0  0  0  0  0  0  0  0  0  0  0
   -3.5724   -1.2375    0.0000 C   0  0  0  0  0  0  0  0  0  0  0  0
   -4.2868   -1.6500    0.0000 O   0  0  0  0  0  0  0  0  0  0  0  0
   -3.5724   -0.4125    0.0000 O   0  0  0  0  0  0  0  0  0  0  0  0
   -1.4289   -1.6500    0.0000 C   0  0  0  0  0  0  0  0  0  0  0  0
   -1.4289   -2.4750    0.0000 C   0  0  0  0  0  0  0  0  0  0  0  0
   -0.7145   -1.2375    0.0000 C   0  0  0  0  0  0  0  0  0  0  0  0
    0.0000   -1.6500    0.0000 C   0  0  0  0  0  0  0  0  0  0  0  0
    0.7145   -1.2375    0.0000 C   0  0  0  0  0  0  0  0  0  0  0  0
    0.7145   -0.4125    0.0000 C   0  0  0  0  0  0  0  0  0  0  0  0
    0.0000   -0.0000    0.0000 N   0  0  0  0  0  0  0  0  0  0  0  0
   -0.7145   -0.4125    0.0000 C   0  0  0  0  0  0  0  0  0  0  0  0
    1.4289   -0.0000    0.0000 N   0  0  0  0  0  0  0  0  0  0  0  0
    2.1434   -0.4125    0.0000 C   0  0  0  0  0  0  0  0  0  0  0  0
    2.8579   -0.0000    0.0000 N   0  0  0  0  0  0  0  0  0  0  0  0
    2.1434   -1.2375    0.0000 N   0  0  0  0  0  0  0  0  0  0  0  0
    1.4289   -1.6500    0.0000 C   0  0  0  0  0  0  0  0  0  0  0  0
    1.4289   -2.4750    0.0000 O   0  0  0  0  0  0  0  0  0  0  0  0
   -5.0013   -3.7125    0.0000 C   0  0  0  0  0  0  0  0  0  0  0  0
   -5.7158   -4.1250    0.0000 C   0  0  0  0  0  0  0  0  0  0  0  0
  1  2  1  0  0  0  0
  2  3  1  0  0  0  0
  3  4  1  0  0  0  0
  4  5  2  0  0  0  0
  4  6  1  0  0  0  0
  6  7  2  0  0  0  0
  7  8  1  0  0  0  0
  8  9  2  0  0  0  0
  9 10  1  0  0  0  0
 10 11  1  0  0  0  0
 11 12  2  0  0  0  0
 11 13  1  0  0  0  0
 13 14  1  0  0  0  0
 14 15  1  0  0  0  0
 15 16  1  0  0  0  0
 16 17  1  0  0  0  0
 13 17  1  0  0  0  0
 17 18  1  0  0  0  0
 18 19  1  0  0  0  0
 18 20  2  0  0  0  0
 16 21  1  0  0  0  0
 21 22  2  0  0  0  0
 14 22  1  0  0  0  0
 21 23  1  0  0  0  0
 23 24  2  0  0  0  0
 24 25  1  0  0  0  0
 25 26  2  0  0  0  0
 26 27  1  0  0  0  0
 27 28  2  0  0  0  0
 23 28  1  0  0  0  0
 26 29  1  0  0  0  0
 29 30  2  0  0  0  0
 30 31  1  0  0  0  0
 30 32  1  0  0  0  0
 32 33  1  0  0  0  0
 25 33  1  0  0  0  0
 33 34  2  0  0  0  0
  9 35  1  0  0  0  0
 35 36  2  0  0  0  0
  6 36  1  0  0  0  0
M  END
> <ID>
CPD_4140

$$$$
CPD_4145
  Mrv1822 09091914012D          

 39 44  0  0  0  0            999 V2000
    2.8579   -4.6349    0.0000 O   0  0  0  0  0  0  0  0  0  0  0  0
    3.5724   -4.2224    0.0000 C   0  0  0  0  0  0  0  0  0  0  0  0
    3.9079   -4.9761    0.0000 C   0  0  0  0  0  0  0  0  0  0  0  0
    3.4230   -5.6435    0.0000 C   0  0  0  0  0  0  0  0  0  0  0  0
    2.6025   -5.5573    0.0000 O   0  0  0  0  0  0  0  0  0  0  0  0
    3.7585   -6.3972    0.0000 C   0  0  0  0  0  0  0  0  0  0  0  0
    4.5790   -6.4834    0.0000 C   0  0  0  0  0  0  0  0  0  0  0  0
    4.9146   -7.2371    0.0000 C   0  0  0  0  0  0  0  0  0  0  0  0
    4.4297   -7.9045    0.0000 C   0  0  0  0  0  0  0  0  0  0  0  0
    4.7652   -8.6582    0.0000 O   0  0  0  0  0  0  0  0  0  0  0  0
    4.2803   -9.3256    0.0000 C   0  0  0  0  0  0  0  0  0  0  0  0
    3.4598   -9.2394    0.0000 C   0  0  0  0  0  0  0  0  0  0  0  0
    3.1243   -8.4857    0.0000 O   0  0  0  0  0  0  0  0  0  0  0  0
    3.6092   -7.8183    0.0000 C   0  0  0  0  0  0  0  0  0  0  0  0
    3.2736   -7.0646    0.0000 C   0  0  0  0  0  0  0  0  0  0  0  0
    3.0874   -3.5549    0.0000 C   0  0  0  0  0  0  0  0  0  0  0  0
    2.2624   -3.5549    0.0000 O   0  0  0  0  0  0  0  0  0  0  0  0
    3.5724   -2.8875    0.0000 N   0  0  0  0  0  0  0  0  0  0  0  0
    3.3174   -2.1029    0.0000 C   0  0  0  0  0  0  0  0  0  0  0  0
    3.8694   -1.4898    0.0000 C   0  0  0  0  0  0  0  0  0  0  0  0
    3.6979   -0.6828    0.0000 C   0  0  0  0  0  0  0  0  0  0  0  0
    4.4124   -0.2703    0.0000 N   0  0  0  0  0  0  0  0  0  0  0  0
    4.4986    0.5502    0.0000 C   0  0  0  0  0  0  0  0  0  0  0  0
    5.2523    0.8857    0.0000 C   0  0  0  0  0  0  0  0  0  0  0  0
    5.4238    1.6927    0.0000 C   0  0  0  0  0  0  0  0  0  0  0  0
    6.2443    1.7789    0.0000 C   0  0  0  0  0  0  0  0  0  0  0  0
    6.0728    2.5859    0.0000 F   0  0  0  0  0  0  0  0  0  0  0  0
    7.0289    2.0339    0.0000 F   0  0  0  0  0  0  0  0  0  0  0  0
    6.5799    1.0253    0.0000 C   0  0  0  0  0  0  0  0  0  0  0  0
    7.3868    0.8537    0.0000 O   0  0  0  0  0  0  0  0  0  0  0  0
    5.9668    0.4732    0.0000 O   0  0  0  0  0  0  0  0  0  0  0  0
    5.0255   -0.8223    0.0000 N   0  0  0  0  0  0  0  0  0  0  0  0
    4.6899   -1.5760    0.0000 N   0  0  0  0  0  0  0  0  0  0  0  0
    4.3570   -3.1424    0.0000 C   0  0  0  0  0  0  0  0  0  0  0  0
    5.0714   -2.7299    0.0000 C   0  0  0  0  0  0  0  0  0  0  0  0
    5.7859   -3.1424    0.0000 C   0  0  0  0  0  0  0  0  0  0  0  0
    5.7859   -3.9674    0.0000 C   0  0  0  0  0  0  0  0  0  0  0  0
    5.0714   -4.3799    0.0000 C   0  0  0  0  0  0  0  0  0  0  0  0
    4.3570   -3.9674    0.0000 C   0  0  0  0  0  0  0  0  0  0  0  0
  1  2  1  0  0  0  0
  2  3  1  0  0  0  0
  3  4  1  0  0  0  0
  4  5  2  0  0  0  0
  4  6  1  0  0  0  0
  6  7  4  0  0  0  0
  7  8  4  0  0  0  0
  8  9  4  0  0  0  0
  9 10  1  0  0  0  0
 10 11  1  0  0  0  0
 11 12  1  0  0  0  0
 12 13  1  0  0  0  0
 13 14  1  0  0  0  0
  9 14  4  0  0  0  0
 14 15  4  0  0  0  0
  6 15  4  0  0  0  0
  2 16  1  0  0  0  0
 16 17  2  0  0  0  0
 16 18  1  0  0  0  0
 18 19  1  0  0  0  0
 19 20  1  0  0  0  0
 20 21  4  0  0  0  0
 21 22  4  0  0  0  0
 22 23  1  0  0  0  0
 23 24  1  0  0  0  0
 24 25  1  0  0  0  0
 25 26  1  0  0  0  0
 26 27  1  0  0  0  0
 26 28  1  0  0  0  0
 26 29  1  0  0  0  0
 29 30  2  0  0  0  0
 29 31  1  0  0  0  0
 24 31  1  0  0  0  0
 22 32  4  0  0  0  0
 32 33  4  0  0  0  0
 20 33  4  0  0  0  0
 18 34  1  0  0  0  0
 34 35  4  0  0  0  0
 35 36  4  0  0  0  0
 36 37  4  0  0  0  0
 37 38  4  0  0  0  0
 38 39  4  0  0  0  0
  2 39  1  0  0  0  0
 34 39  4  0  0  0  0
M  END
> <ID>
CPD_4145

$$$$
CPD_4150
  Mrv1822 09091914012D          

 28 30  0  0  0  0            999 V2000
   -2.0367    2.0009    0.0000 C   0  0  0  0  0  0  0  0  0  0  0  0
   -2.0367    1.1759    0.0000 C   0  0  0  0  0  0  0  0  0  0  0  0
   -1.3222    0.7634    0.0000 N   0  0  0  0  0  0  0  0  0  0  0  0
   -0.6078    1.1759    0.0000 C   0  0  0  0  0  0  0  0  0  0  0  0
    0.1067    0.7634    0.0000 C   0  0  0  0  0  0  0  0  0  0  0  0
   -1.3222   -0.0616    0.0000 C   0  0  0  0  0  0  0  0  0  0  0  0
   -0.6078   -0.4741    0.0000 C   0  0  0  0  0  0  0  0  0  0  0  0
   -0.6078   -1.2991    0.0000 C   0  0  0  0  0  0  0  0  0  0  0  0
   -1.3222   -1.7116    0.0000 C   0  0  0  0  0  0  0  0  0  0  0  0
   -2.0367   -1.2991    0.0000 C   0  0  0  0  0  0  0  0  0  0  0  0
   -2.0367   -0.4741    0.0000 C   0  0  0  0  0  0  0  0  0  0  0  0
   -1.3222   -2.5366    0.0000 C   0  0  0  0  0  0  0  0  0  0  0  0
   -0.6548   -3.0215    0.0000 C   0  0  0  0  0  0  0  0  0  0  0  0
   -0.9097   -3.8062    0.0000 N   0  0  0  0  0  0  0  0  0  0  0  0
   -0.4248   -4.4736    0.0000 C   0  0  0  0  0  0  0  0  0  0  0  0
    0.3957   -4.3874    0.0000 C   0  0  0  0  0  0  0  0  0  0  0  0
    0.7312   -3.6337    0.0000 O   0  0  0  0  0  0  0  0  0  0  0  0
    0.8806   -5.0548    0.0000 N   0  0  0  0  0  0  0  0  0  0  0  0
    1.7011   -4.9686    0.0000 C   0  0  0  0  0  0  0  0  0  0  0  0
    2.0366   -4.2149    0.0000 C   0  0  0  0  0  0  0  0  0  0  0  0
    2.8571   -4.1286    0.0000 C   0  0  0  0  0  0  0  0  0  0  0  0
    3.3420   -4.7961    0.0000 C   0  0  0  0  0  0  0  0  0  0  0  0
    3.0065   -5.5498    0.0000 C   0  0  0  0  0  0  0  0  0  0  0  0
    3.4914   -6.2172    0.0000 S   0  0  0  0  0  0  0  0  0  0  0  0
    4.3119   -6.1310    0.0000 C   0  0  0  0  0  0  0  0  0  0  0  0
    2.1860   -5.6360    0.0000 C   0  0  0  0  0  0  0  0  0  0  0  0
   -1.7347   -3.8062    0.0000 N   0  0  0  0  0  0  0  0  0  0  0  0
   -1.9897   -3.0215    0.0000 N   0  0  0  0  0  0  0  0  0  0  0  0
  1  2  1  0  0  0  0
  2  3  1  0  0  0  0
  3  4  1  0  0  0  0
  4  5  1  0  0  0  0
  3  6  1  0  0  0  0
  6  7  4  0  0  0  0
  7  8  4  0  0  0  0
  8  9  4  0  0  0  0
  9 10  4  0  0  0  0
 10 11  4  0  0  0  0
  6 11  4  0  0  0  0
  9 12  1  0  0  0  0
 12 13  4  0  0  0  0
 13 14  4  0  0  0  0
 14 15  1  0  0  0  0
 15 16  1  0  0  0  0
 16 17  2  0  0  0  0
 16 18  1  0  0  0  0
 18 19  1  0  0  0  0
 19 20  4  0  0  0  0
 20 21  4  0  0  0  0
 21 22  4  0  0  0  0
 22 23  4  0  0  0  0
 23 24  1  0  0  0  0
 24 25  1  0  0  0  0
 23 26  4  0  0  0  0
 19 26  4  0  0  0  0
 14 27  4  0  0  0  0
 27 28  4  0  0  0  0
 12 28  4  0  0  0  0
M  END
> <ID>
CPD_4150

$$$$
CPD_4155
  Mrv1822 09091914012D          

 23 24  0  0  0  0            999 V2000
    2.7512    8.0652    0.0000 C   0  0  0  0  0  0  0  0  0  0  0  0
    2.7512    7.2402    0.0000 C   0  0  0  0  0  0  0  0  0  0  0  0
    3.4656    6.8277    0.0000 O   0  0  0  0  0  0  0  0  0  0  0  0
    3.4656    6.0027    0.0000 C   0  0  0  0  0  0  0  0  0  0  0  0
    2.7512    5.5902    0.0000 O   0  0  0  0  0  0  0  0  0  0  0  0
    4.1801    5.5902    0.0000 C   0  0  0  0  0  0  0  0  0  0  0  0
    4.8946    6.0027    0.0000 C   0  0  0  0  0  0  0  0  0  0  0  0
    5.6091    5.5902    0.0000 C   0  0  0  0  0  0  0  0  0  0  0  0
    5.6091    4.7652    0.0000 C   0  0  0  0  0  0  0  0  0  0  0  0
    4.8946    4.3527    0.0000 C   0  0  0  0  0  0  0  0  0  0  0  0
    4.1801    4.7652    0.0000 C   0  0  0  0  0  0  0  0  0  0  0  0
    3.4656    4.3527    0.0000 N   0  0  0  0  0  0  0  0  0  0  0  0
    3.4656    3.5277    0.0000 C   0  0  0  0  0  0  0  0  0  0  0  0
    2.7512    3.1152    0.0000 O   0  0  0  0  0  0  0  0  0  0  0  0
    4.1801    3.1152    0.0000 C   0  0  0  0  0  0  0  0  0  0  0  0
    4.1801    2.2902    0.0000 N   0  0  0  0  0  0  0  0  0  0  0  0
    4.8476    1.8053    0.0000 C   0  0  0  0  0  0  0  0  0  0  0  0
    4.5926    1.0206    0.0000 C   0  0  0  0  0  0  0  0  0  0  0  0
    3.7676    1.0206    0.0000 N   0  0  0  0  0  0  0  0  0  0  0  0
    3.5127    1.8053    0.0000 N   0  0  0  0  0  0  0  0  0  0  0  0
    5.0775    0.3532    0.0000 C   0  0  0  0  0  0  0  0  0  0  0  0
    5.8980    0.4394    0.0000 C   0  0  0  0  0  0  0  0  0  0  0  0
    4.7420   -0.4005    0.0000 N   0  0  0  0  0  0  0  0  0  0  0  0
  1  2  1  0  0  0  0
  2  3  1  0  0  0  0
  3  4  1  0  0  0  0
  4  5  2  0  0  0  0
  4  6  1  0  0  0  0
  6  7  4  0  0  0  0
  7  8  4  0  0  0  0
  8  9  4  0  0  0  0
  9 10  4  0  0  0  0
 10 11  4  0  0  0  0
  6 11  4  0  0  0  0
 11 12  1  0  0  0  0
 12 13  1  0  0  0  0
 13 14  2  0  0  0  0
 13 15  1  0  0  0  0
 15 16  1  0  0  0  0
 16 17  4  0  0  0  0
 17 18  4  0  0  0  0
 18 19  4  0  0  0  0
 19 20  4  0  0  0  0
 16 20  4  0  0  0  0
 18 21  1  0  0  0  0
 21 22  1  0  0  0  0
 21 23  1  0  0  0  0
M  END
> <ID>
CPD_4155

$$$$
CPD_4160
  Mrv1822 09091914012D          

 23 25  0  0  0  0            999 V2000
   -2.4215   -4.7271    0.0000 C   0  0  0  0  0  0  0  0  0  0  0  0
   -2.1665   -3.9425    0.0000 C   0  0  0  0  0  0  0  0  0  0  0  0
   -1.9116   -3.1579    0.0000 C   0  0  0  0  0  0  0  0  0  0  0  0
   -2.9512   -3.6875    0.0000 N   0  0  0  0  0  0  0  0  0  0  0  0
   -1.3819   -4.1974    0.0000 C   0  0  0  0  0  0  0  0  0  0  0  0
   -1.1270   -4.9820    0.0000 C   0  0  0  0  0  0  0  0  0  0  0  0
   -0.3020   -4.9820    0.0000 N   0  0  0  0  0  0  0  0  0  0  0  0
   -0.0470   -4.1974    0.0000 N   0  0  0  0  0  0  0  0  0  0  0  0
   -0.7145   -3.7125    0.0000 N   0  0  0  0  0  0  0  0  0  0  0  0
   -0.7145   -2.8875    0.0000 C   0  0  0  0  0  0  0  0  0  0  0  0
    0.0000   -2.4750    0.0000 C   0  0  0  0  0  0  0  0  0  0  0  0
    0.7145   -2.8875    0.0000 O   0  0  0  0  0  0  0  0  0  0  0  0
    0.0000   -1.6500    0.0000 N   0  0  0  0  0  0  0  0  0  0  0  0
    0.7145   -1.2375    0.0000 C   0  0  0  0  0  0  0  0  0  0  0  0
    0.7145   -0.4125    0.0000 C   0  0  0  0  0  0  0  0  0  0  0  0
    1.4289    0.0000    0.0000 C   0  0  0  0  0  0  0  0  0  0  0  0
    2.1434   -0.4125    0.0000 C   0  0  0  0  0  0  0  0  0  0  0  0
    2.8579    0.0000    0.0000 O   0  0  0  0  0  0  0  0  0  0  0  0
    3.5724   -0.4125    0.0000 C   0  0  0  0  0  0  0  0  0  0  0  0
    3.5724   -1.2375    0.0000 C   0  0  0  0  0  0  0  0  0  0  0  0
    2.8579   -1.6500    0.0000 O   0  0  0  0  0  0  0  0  0  0  0  0
    2.1434   -1.2375    0.0000 C   0  0  0  0  0  0  0  0  0  0  0  0
    1.4289   -1.6500    0.0000 C   0  0  0  0  0  0  0  0  0  0  0  0
  1  2  1  0  0  0  0
  2  3  1  0  0  0  0
  2  4  1  0  0  0  0
  2  5  1  0  0  0  0
  5  6  4  0  0  0  0
  6  7  4  0  0  0  0
  7  8  4  0  0  0  0
  8  9  4  0  0  0  0
  5  9  4  0  0  0  0
  9 10  1  0  0  0  0
 10 11  1  0  0  0  0
 11 12  2  0  0  0  0
 11 13  1  0  0  0  0
 13 14  1  0  0  0  0
 14 15  4  0  0  0  0
 15 16  4  0  0  0  0
 16 17  4  0  0  0  0
 17 18  1  0  0  0  0
 18 19  1  0  0  0  0
 19 20  1  0  0  0  0
 20 21  1  0  0  0  0
 21 22  1  0  0  0  0
 17 22  4  0  0  0  0
 22 23  4  0  0  0  0
 14 23  4  0  0  0  0
M  END
> <ID>
CPD_4160

$$$$
CPD_4165
  Mrv1822 09091914012D          

 37 43  0  0  0  0            999 V2000
    3.6512   -3.2503    0.0000 C   0  0  0  0  0  0  0  0  0  0  0  0
    3.9432   -2.4787    0.0000 C   0  0  0  0  0  0  0  0  0  0  0  0
    4.5294   -3.0593    0.0000 C   0  0  0  0  0  0  0  0  0  0  0  0
    5.3252   -2.8420    0.0000 C   0  0  0  0  0  0  0  0  0  0  0  0
    5.5350   -2.0441    0.0000 C   0  0  0  0  0  0  0  0  0  0  0  0
    4.9488   -1.4635    0.0000 C   0  0  0  0  0  0  0  0  0  0  0  0
    5.1586   -0.6656    0.0000 C   0  0  0  0  0  0  0  0  0  0  0  0
    5.9544   -0.4483    0.0000 C   0  0  0  0  0  0  0  0  0  0  0  0
    6.5406   -1.0289    0.0000 C   0  0  0  0  0  0  0  0  0  0  0  0
    7.3364   -0.8116    0.0000 C   0  0  0  0  0  0  0  0  0  0  0  0
    7.9226   -1.3922    0.0000 C   0  0  0  0  0  0  0  0  0  0  0  0
    8.7462   -1.3451    0.0000 O   0  0  0  0  0  0  0  0  0  0  0  0
    9.0455   -2.1139    0.0000 N   0  0  0  0  0  0  0  0  0  0  0  0
    8.4069   -2.6361    0.0000 C   0  0  0  0  0  0  0  0  0  0  0  0
    7.7128   -2.1901    0.0000 C   0  0  0  0  0  0  0  0  0  0  0  0
    6.9170   -2.4074    0.0000 C   0  0  0  0  0  0  0  0  0  0  0  0
    6.3308   -1.8268    0.0000 C   0  0  0  0  0  0  0  0  0  0  0  0
    6.1211   -2.6247    0.0000 C   0  0  0  0  0  0  0  0  0  0  0  0
    4.1530   -1.6808    0.0000 C   0  0  0  0  0  0  0  0  0  0  0  0
    3.4589   -1.2348    0.0000 C   0  0  0  0  0  0  0  0  0  0  0  0
    2.8203   -1.7570    0.0000 C   0  0  0  0  0  0  0  0  0  0  0  0
    3.1196   -2.5258    0.0000 C   0  0  0  0  0  0  0  0  0  0  0  0
    2.3903   -2.9115    0.0000 O   0  0  0  0  0  0  0  0  0  0  0  0
    3.0717   -3.3494    0.0000 C   0  0  0  0  0  0  0  0  0  0  0  0
    3.7099   -3.8723    0.0000 C   0  0  0  0  0  0  0  0  0  0  0  0
    3.4098   -4.6408    0.0000 N   0  0  0  0  0  0  0  0  0  0  0  0
    3.8552   -5.3352    0.0000 C   0  0  0  0  0  0  0  0  0  0  0  0
    3.4764   -6.0682    0.0000 C   0  0  0  0  0  0  0  0  0  0  0  0
    3.9218   -6.7626    0.0000 C   0  0  0  0  0  0  0  0  0  0  0  0
    3.5431   -7.4956    0.0000 C   0  0  0  0  0  0  0  0  0  0  0  0
    2.7190   -7.5340    0.0000 C   0  0  0  0  0  0  0  0  0  0  0  0
    2.2736   -6.8396    0.0000 C   0  0  0  0  0  0  0  0  0  0  0  0
    2.6523   -6.1066    0.0000 C   0  0  0  0  0  0  0  0  0  0  0  0
    2.3402   -8.2669    0.0000 C   0  0  0  0  0  0  0  0  0  0  0  0
    1.9615   -8.9999    0.0000 N   0  0  0  0  0  0  0  0  0  0  0  0
    2.5862   -4.5929    0.0000 N   0  0  0  0  0  0  0  0  0  0  0  0
    2.3772   -3.7948    0.0000 N   0  0  0  0  0  0  0  0  0  0  0  0
  1  2  1  0  0  0  0
  2  3  1  0  0  0  0
  3  4  1  0  0  0  0
  4  5  1  0  0  0  0
  5  6  1  0  0  0  0
  6  7  1  0  0  0  0
  7  8  1  0  0  0  0
  8  9  1  0  0  0  0
  9 10  2  0  0  0  0
 10 11  1  0  0  0  0
 11 12  4  0  0  0  0
 12 13  4  0  0  0  0
 13 14  4  0  0  0  0
 14 15  4  0  0  0  0
 11 15  4  0  0  0  0
 15 16  1  0  0  0  0
 16 17  1  0  0  0  0
  5 17  1  0  0  0  0
  9 17  1  0  0  0  0
 17 18  1  0  0  0  0
  6 19  1  0  0  0  0
  2 19  1  0  0  0  0
 19 20  1  0  0  0  0
 20 21  1  0  0  0  0
 21 22  1  0  0  0  0
  2 22  1  0  0  0  0
 22 23  1  0  0  0  0
 22 24  1  0  0  0  0
 24 25  4  0  0  0  0
 25 26  4  0  0  0  0
 26 27  1  0  0  0  0
 27 28  1  0  0  0  0
 28 29  4  0  0  0  0
 29 30  4  0  0  0  0
 30 31  4  0  0  0  0
 31 32  4  0  0  0  0
 32 33  4  0  0  0  0
 28 33  4  0  0  0  0
 31 34  1  0  0  0  0
 34 35  3  0  0  0  0
 26 36  4  0  0  0  0
 36 37  4  0  0  0  0
 24 37  4  0  0  0  0
M  END
> <ID>
CPD_4165

$$$$
CPD_4170
  Mrv1822 09091914012D          

 26 29  0  0  0  0            999 V2000
   -0.7145   -0.4125    0.0000 F   0  0  0  0  0  0  0  0  0  0  0  0
    0.0000   -0.0000    0.0000 C   0  0  0  0  0  0  0  0  0  0  0  0
    0.0000    0.8250    0.0000 C   0  0  0  0  0  0  0  0  0  0  0  0
    0.7145    1.2375    0.0000 C   0  0  0  0  0  0  0  0  0  0  0  0
    1.4289    0.8250    0.0000 C   0  0  0  0  0  0  0  0  0  0  0  0
    2.1434    1.2375    0.0000 Br  0  0  0  0  0  0  0  0  0  0  0  0
    1.4289   -0.0000    0.0000 C   0  0  0  0  0  0  0  0  0  0  0  0
    0.7145   -0.4125    0.0000 C   0  0  0  0  0  0  0  0  0  0  0  0
    0.7145   -1.2375    0.0000 C   0  0  0  0  0  0  0  0  0  0  0  0
    0.0470   -1.7224    0.0000 N   0  0  0  0  0  0  0  0  0  0  0  0
    0.3020   -2.5070    0.0000 C   0  0  0  0  0  0  0  0  0  0  0  0
    1.1270   -2.5070    0.0000 N   0  0  0  0  0  0  0  0  0  0  0  0
    1.3819   -1.7224    0.0000 C   0  0  0  0  0  0  0  0  0  0  0  0
    2.1665   -1.4675    0.0000 C   0  0  0  0  0  0  0  0  0  0  0  0
    2.3381   -0.6605    0.0000 C   0  0  0  0  0  0  0  0  0  0  0  0
    3.1227   -0.4056    0.0000 C   0  0  0  0  0  0  0  0  0  0  0  0
    3.2942    0.4014    0.0000 Br  0  0  0  0  0  0  0  0  0  0  0  0
    3.7358   -0.9576    0.0000 C   0  0  0  0  0  0  0  0  0  0  0  0
    3.5642   -1.7646    0.0000 C   0  0  0  0  0  0  0  0  0  0  0  0
    2.7796   -2.0195    0.0000 C   0  0  0  0  0  0  0  0  0  0  0  0
    2.6081   -2.8265    0.0000 F   0  0  0  0  0  0  0  0  0  0  0  0
   -0.1830   -3.1745    0.0000 C   0  0  0  0  0  0  0  0  0  0  0  0
   -1.0080   -3.1745    0.0000 C   0  0  0  0  0  0  0  0  0  0  0  0
   -1.2629   -3.9591    0.0000 C   0  0  0  0  0  0  0  0  0  0  0  0
   -0.5955   -4.4440    0.0000 C   0  0  0  0  0  0  0  0  0  0  0  0
    0.0720   -3.9591    0.0000 O   0  0  0  0  0  0  0  0  0  0  0  0
  1  2  1  0  0  0  0
  2  3  4  0  0  0  0
  3  4  4  0  0  0  0
  4  5  4  0  0  0  0
  5  6  1  0  0  0  0
  5  7  4  0  0  0  0
  7  8  4  0  0  0  0
  2  8  4  0  0  0  0
  8  9  1  0  0  0  0
  9 10  4  0  0  0  0
 10 11  4  0  0  0  0
 11 12  4  0  0  0  0
 12 13  4  0  0  0  0
  9 13  4  0  0  0  0
 13 14  1  0  0  0  0
 14 15  4  0  0  0  0
 15 16  4  0  0  0  0
 16 17  1  0  0  0  0
 16 18  4  0  0  0  0
 18 19  4  0  0  0  0
 19 20  4  0  0  0  0
 14 20  4  0  0  0  0
 20 21  1  0  0  0  0
 11 22  1  0  0  0  0
 22 23  1  0  0  0  0
 23 24  1  0  0  0  0
 24 25  1  0  0  0  0
 25 26  1  0  0  0  0
 22 26  1  0  0  0  0
M  STY  1   1 DAT
M  SAL   1  1  12
M  SDT   1 MRV_IMPLICIT_H                                        
M  SDD   1     0.5304   -0.4125    DR    ALL  0       0  
M  SED   1 IMPL_H1
M  END
> <ID>
CPD_4170

$$$$
CPD_4175
  Mrv1822 09091914012D          

 19 20  0  0  0  0            999 V2000
    0.0000   -0.0000    0.0000 C   0  0  0  0  0  0  0  0  0  0  0  0
    0.7145   -0.4125    0.0000 C   0  0  0  0  0  0  0  0  0  0  0  0
    0.7145   -1.2375    0.0000 O   0  0  0  0  0  0  0  0  0  0  0  0
    1.4289   -1.6500    0.0000 C   0  0  0  0  0  0  0  0  0  0  0  0
    2.1434   -1.2375    0.0000 O   0  0  0  0  0  0  0  0  0  0  0  0
    1.4289   -2.4750    0.0000 C   0  0  0  0  0  0  0  0  0  0  0  0
    2.0964   -2.9599    0.0000 N   0  0  0  0  0  0  0  0  0  0  0  0
    1.8414   -3.7445    0.0000 C   0  0  0  0  0  0  0  0  0  0  0  0
    2.3264   -4.4120    0.0000 N   0  0  0  0  0  0  0  0  0  0  0  0
    3.1468   -4.3257    0.0000 C   0  0  0  0  0  0  0  0  0  0  0  0
    3.6318   -4.9932    0.0000 C   0  0  0  0  0  0  0  0  0  0  0  0
    4.4522   -4.9070    0.0000 C   0  0  0  0  0  0  0  0  0  0  0  0
    4.9372   -5.5744    0.0000 C   0  0  0  0  0  0  0  0  0  0  0  0
    4.6016   -6.3281    0.0000 C   0  0  0  0  0  0  0  0  0  0  0  0
    3.7811   -6.4143    0.0000 C   0  0  0  0  0  0  0  0  0  0  0  0
    3.2962   -5.7469    0.0000 C   0  0  0  0  0  0  0  0  0  0  0  0
    1.0164   -3.7445    0.0000 N   0  0  0  0  0  0  0  0  0  0  0  0
    0.7615   -2.9599    0.0000 C   0  0  0  0  0  0  0  0  0  0  0  0
   -0.0231   -2.7050    0.0000 C   0  0  0  0  0  0  0  0  0  0  0  0
  1  2  1  0  0  0  0
  2  3  1  0  0  0  0
  3  4  1  0  0  0  0
  4  5  2  0  0  0  0
  4  6  1  0  0  0  0
  6  7  4  0  0  0  0
  7  8  4  0  0  0  0
  8  9  1  0  0  0  0
  9 10  1  0  0  0  0
 10 11  1  0  0  0  0
 11 12  4  0  0  0  0
 12 13  4  0  0  0  0
 13 14  4  0  0  0  0
 14 15  4  0  0  0  0
 15 16  4  0  0  0  0
 11 16  4  0  0  0  0
  8 17  4  0  0  0  0
 17 18  4  0  0  0  0
  6 18  4  0  0  0  0
 18 19  1  0  0  0  0
M  STY  1   1 DAT
M  SAL   1  1   7
M  SDT   1 MRV_IMPLICIT_H                                        
M  SDD   1     0.5304   -0.4125    DR    ALL  0       0  
M  SED   1 IMPL_H1
M  END
> <ID>
CPD_4175

$$$$
CPD_4180
  Mrv1822 09091914012D          

 19 20  0  0  1  0            999 V2000
    3.4656    1.1759    0.0000 C   0  0  0  0  0  0  0  0  0  0  0  0
    2.7512    0.7634    0.0000 C   0  0  0  0  0  0  0  0  0  0  0  0
    2.7512   -0.0616    0.0000 C   0  0  2  0  0  0  0  0  0  0  0  0
    3.4656   -0.4741    0.0000 C   0  0  0  0  0  0  0  0  0  0  0  0
    2.0367   -0.4741    0.0000 C   0  0  2  0  0  0  0  0  0  0  0  0
    1.3222   -0.0616    0.0000 N   0  0  0  0  0  0  0  0  0  0  0  0
    2.0367   -1.2991    0.0000 C   0  0  0  0  0  0  0  0  0  0  0  0
    2.7041   -1.7840    0.0000 C   0  0  0  0  0  0  0  0  0  0  0  0
    2.4492   -2.5687    0.0000 N   0  0  0  0  0  0  0  0  0  0  0  0
    1.6242   -2.5687    0.0000 C   0  0  0  0  0  0  0  0  0  0  0  0
    1.1393   -3.2361    0.0000 C   0  0  0  0  0  0  0  0  0  0  0  0
    0.3188   -3.1499    0.0000 C   0  0  0  0  0  0  0  0  0  0  0  0
   -0.1661   -3.8173    0.0000 C   0  0  0  0  0  0  0  0  0  0  0  0
   -0.9866   -3.7311    0.0000 C   0  0  0  0  0  0  0  0  0  0  0  0
   -1.3222   -2.9774    0.0000 C   0  0  0  0  0  0  0  0  0  0  0  0
   -0.8372   -2.3099    0.0000 C   0  0  0  0  0  0  0  0  0  0  0  0
   -0.0168   -2.3962    0.0000 C   0  0  0  0  0  0  0  0  0  0  0  0
    0.4682   -1.7287    0.0000 F   0  0  0  0  0  0  0  0  0  0  0  0
    1.3693   -1.7840    0.0000 N   0  0  0  0  0  0  0  0  0  0  0  0
  1  2  1  0  0  0  0
  3  2  1  0  0  0  0
  3  4  1  6  0  0  0
  3  5  1  0  0  0  0
  5  6  1  1  0  0  0
  5  7  1  0  0  0  0
  7  8  4  0  0  0  0
  8  9  4  0  0  0  0
  9 10  4  0  0  0  0
 10 11  1  0  0  0  0
 11 12  1  0  0  0  0
 12 13  4  0  0  0  0
 13 14  4  0  0  0  0
 14 15  4  0  0  0  0
 15 16  4  0  0  0  0
 16 17  4  0  0  0  0
 12 17  4  0  0  0  0
 17 18  1  0  0  0  0
 10 19  4  0  0  0  0
  7 19  4  0  0  0  0
M  STY  1   1 DAT
M  SAL   1  1  19
M  SDT   1 MRV_IMPLICIT_H                                        
M  SDD   1     0.5304   -0.4125    DR    ALL  0       0  
M  SED   1 IMPL_H1
M  END
> <ID>
CPD_4180

$$$$
CPD_4185
  Mrv1822 09091914012D          

 19 21  0  0  0  0            999 V2000
   -2.6719   -2.3314    0.0000 F   0  0  0  0  0  0  0  0  0  0  0  0
   -2.0044   -1.8464    0.0000 C   0  0  0  0  0  0  0  0  0  0  0  0
   -2.0907   -1.0260    0.0000 F   0  0  0  0  0  0  0  0  0  0  0  0
   -1.2508   -2.1820    0.0000 C   0  0  0  0  0  0  0  0  0  0  0  0
   -0.5363   -1.7695    0.0000 N   0  0  0  0  0  0  0  0  0  0  0  0
    0.0768   -2.3215    0.0000 C   0  0  0  0  0  0  0  0  0  0  0  0
    0.8838   -2.1500    0.0000 S   0  0  0  0  0  0  0  0  0  0  0  0
    1.1387   -1.3654    0.0000 C   0  0  0  0  0  0  0  0  0  0  0  0
    0.6538   -0.6979    0.0000 C   0  0  0  0  0  0  0  0  0  0  0  0
    1.1387   -0.0305    0.0000 N   0  0  0  0  0  0  0  0  0  0  0  0
    1.9233   -0.2854    0.0000 C   0  0  0  0  0  0  0  0  0  0  0  0
    2.6378    0.1271    0.0000 C   0  0  0  0  0  0  0  0  0  0  0  0
    3.3523   -0.2854    0.0000 C   0  0  0  0  0  0  0  0  0  0  0  0
    3.3523   -1.1104    0.0000 C   0  0  0  0  0  0  0  0  0  0  0  0
    2.6378   -1.5229    0.0000 C   0  0  0  0  0  0  0  0  0  0  0  0
    1.9233   -1.1104    0.0000 C   0  0  0  0  0  0  0  0  0  0  0  0
   -0.2587   -3.0752    0.0000 N   0  0  0  0  0  0  0  0  0  0  0  0
   -1.0792   -2.9890    0.0000 C   0  0  0  0  0  0  0  0  0  0  0  0
   -1.6313   -3.6021    0.0000 Br  0  0  0  0  0  0  0  0  0  0  0  0
  1  2  1  0  0  0  0
  2  3  1  0  0  0  0
  2  4  1  0  0  0  0
  4  5  4  0  0  0  0
  5  6  4  0  0  0  0
  6  7  1  0  0  0  0
  7  8  1  0  0  0  0
  8  9  4  0  0  0  0
  9 10  4  0  0  0  0
 10 11  4  0  0  0  0
 11 12  4  0  0  0  0
 12 13  4  0  0  0  0
 13 14  4  0  0  0  0
 14 15  4  0  0  0  0
 15 16  4  0  0  0  0
  8 16  4  0  0  0  0
 11 16  4  0  0  0  0
  6 17  4  0  0  0  0
 17 18  4  0  0  0  0
  4 18  4  0  0  0  0
 18 19  1  0  0  0  0
M  STY  2   1 DAT   2 DAT
M  SAL   1  1   5
M  SDT   1 MRV_IMPLICIT_H                                        
M  SDD   1     0.6482   -0.4125    DR    ALL  0       0  
M  SED   1 IMPL_H1
M  SAL   2  1  10
M  SDT   2 MRV_IMPLICIT_H                                        
M  SDD   2     0.5304   -0.4125    DR    ALL  0       0  
M  SED   2 IMPL_H1
M  END
> <ID>
CPD_4185

$$$$
CPD_4190
  Mrv1822 09091914012D          

 28 31  0  0  0  0            999 V2000
   -2.9886   -3.9551    0.0000 C   0  0  0  0  0  0  0  0  0  0  0  0
   -2.1917   -3.7416    0.0000 C   0  0  0  0  0  0  0  0  0  0  0  0
   -1.9782   -2.9447    0.0000 C   0  0  0  0  0  0  0  0  0  0  0  0
   -1.1813   -2.7312    0.0000 C   0  0  0  0  0  0  0  0  0  0  0  0
   -0.5979   -3.3146    0.0000 C   0  0  0  0  0  0  0  0  0  0  0  0
   -0.8114   -4.1114    0.0000 C   0  0  0  0  0  0  0  0  0  0  0  0
   -1.6083   -4.3250    0.0000 C   0  0  0  0  0  0  0  0  0  0  0  0
   -0.9678   -1.9343    0.0000 N   0  0  0  0  0  0  0  0  0  0  0  0
   -0.1709   -1.7208    0.0000 C   0  0  0  0  0  0  0  0  0  0  0  0
    0.4125   -2.3041    0.0000 C   0  0  0  0  0  0  0  0  0  0  0  0
    0.9959   -2.8875    0.0000 C   0  0  0  0  0  0  0  0  0  0  0  0
    0.4125   -3.4709    0.0000 O   0  0  0  0  0  0  0  0  0  0  0  0
   -0.1709   -2.8875    0.0000 C   0  0  0  0  0  0  0  0  0  0  0  0
    0.9959   -1.7208    0.0000 N   0  0  0  0  0  0  0  0  0  0  0  0
    0.7823   -0.9239    0.0000 C   0  0  0  0  0  0  0  0  0  0  0  0
   -0.0146   -0.7104    0.0000 C   0  0  0  0  0  0  0  0  0  0  0  0
   -0.5979   -1.2937    0.0000 C   0  0  0  0  0  0  0  0  0  0  0  0
   -1.3948   -1.0802    0.0000 C   0  0  0  0  0  0  0  0  0  0  0  0
   -1.6083   -0.2833    0.0000 C   0  0  0  0  0  0  0  0  0  0  0  0
   -1.0250    0.3001    0.0000 C   0  0  0  0  0  0  0  0  0  0  0  0
   -0.2281    0.0865    0.0000 C   0  0  0  0  0  0  0  0  0  0  0  0
    1.7928   -1.9343    0.0000 C   0  0  0  0  0  0  0  0  0  0  0  0
    2.3761   -1.3509    0.0000 C   0  0  0  0  0  0  0  0  0  0  0  0
    2.1626   -0.5540    0.0000 C   0  0  0  0  0  0  0  0  0  0  0  0
    2.7460    0.0293    0.0000 C   0  0  0  0  0  0  0  0  0  0  0  0
    3.5428   -0.1842    0.0000 C   0  0  0  0  0  0  0  0  0  0  0  0
    3.7564   -0.9811    0.0000 C   0  0  0  0  0  0  0  0  0  0  0  0
    3.1730   -1.5645    0.0000 C   0  0  0  0  0  0  0  0  0  0  0  0
  1  2  1  0  0  0  0
  2  3  2  0  0  0  0
  3  4  1  0  0  0  0
  4  5  1  0  0  0  0
  5  6  1  0  0  0  0
  6  7  1  0  0  0  0
  2  7  1  0  0  0  0
  4  8  2  0  0  0  0
  8  9  1  4  0  0  0
  9 10  1  0  0  0  0
 10 11  1  0  0  0  0
 11 12  1  0  0  0  0
 12 13  1  0  0  0  0
 10 13  1  0  0  0  0
 10 14  1  0  0  0  0
 14 15  1  0  0  0  0
 15 16  1  0  0  0  0
 16 17  2  0  0  0  0
 17 18  1  0  0  0  0
 18 19  2  0  0  0  0
 19 20  1  0  0  0  0
 20 21  2  0  0  0  0
 16 21  1  0  0  0  0
 14 22  1  0  0  0  0
 22 23  1  0  0  0  0
 23 24  2  0  0  0  0
 24 25  1  0  0  0  0
 25 26  2  0  0  0  0
 26 27  1  0  0  0  0
 27 28  2  0  0  0  0
 23 28  1  0  0  0  0
M  END
> <ID>
CPD_4190

$$$$
CPD_4195
  Mrv1822 09091914012D          

 28 31  0  0  0  0            999 V2000
    1.0250    4.5375    0.0000 C   0  0  0  0  0  0  0  0  0  0  0  0
    1.8500    4.5375    0.0000 C   0  0  0  0  0  0  0  0  0  0  0  0
    2.6750    4.5375    0.0000 C   0  0  0  0  0  0  0  0  0  0  0  0
    1.8500    5.3625    0.0000 C   0  0  0  0  0  0  0  0  0  0  0  0
    1.8500    6.1875    0.0000 N   0  0  0  0  0  0  0  0  0  0  0  0
    1.8500    3.7125    0.0000 C   0  0  0  0  0  0  0  0  0  0  0  0
    2.5645    3.3000    0.0000 C   0  0  0  0  0  0  0  0  0  0  0  0
    2.5645    2.4750    0.0000 C   0  0  0  0  0  0  0  0  0  0  0  0
    1.8500    2.0625    0.0000 C   0  0  0  0  0  0  0  0  0  0  0  0
    1.1355    2.4750    0.0000 C   0  0  0  0  0  0  0  0  0  0  0  0
    1.1355    3.3000    0.0000 C   0  0  0  0  0  0  0  0  0  0  0  0
    3.2789    2.0625    0.0000 N   0  0  0  0  0  0  0  0  0  0  0  0
    3.2789    1.2375    0.0000 C   0  0  0  0  0  0  0  0  0  0  0  0
    3.9934    0.8250    0.0000 C   0  0  0  0  0  0  0  0  0  0  0  0
    3.9934    0.0000    0.0000 C   0  0  0  0  0  0  0  0  0  0  0  0
    3.2789   -0.4125    0.0000 C   0  0  0  0  0  0  0  0  0  0  0  0
    2.5645    0.0000    0.0000 C   0  0  0  0  0  0  0  0  0  0  0  0
    2.5645    0.8250    0.0000 C   0  0  0  0  0  0  0  0  0  0  0  0
    1.7798    1.0799    0.0000 C   0  0  0  0  0  0  0  0  0  0  0  0
    1.2949    0.4125    0.0000 N   0  0  0  0  0  0  0  0  0  0  0  0
    1.7798   -0.2549    0.0000 N   0  0  0  0  0  0  0  0  0  0  0  0
    1.5249   -1.0396    0.0000 C   0  0  0  0  0  0  0  0  0  0  0  0
    2.0769   -1.6527    0.0000 C   0  0  0  0  0  0  0  0  0  0  0  0
    1.8220   -2.4373    0.0000 C   0  0  0  0  0  0  0  0  0  0  0  0
    1.0150   -2.6088    0.0000 C   0  0  0  0  0  0  0  0  0  0  0  0
    0.4630   -1.9957    0.0000 C   0  0  0  0  0  0  0  0  0  0  0  0
   -0.3440   -2.1672    0.0000 Br  0  0  0  0  0  0  0  0  0  0  0  0
    0.7179   -1.2111    0.0000 C   0  0  0  0  0  0  0  0  0  0  0  0
  1  2  1  0  0  0  0
  2  3  1  0  0  0  0
  2  4  1  0  0  0  0
  4  5  3  0  0  0  0
  2  6  1  0  0  0  0
  6  7  2  0  0  0  0
  7  8  1  0  0  0  0
  8  9  2  0  0  0  0
  9 10  1  0  0  0  0
 10 11  2  0  0  0  0
  6 11  1  0  0  0  0
 12  8  1  4  0  0  0
 12 13  2  0  0  0  0
 13 14  1  0  0  0  0
 14 15  1  0  0  0  0
 15 16  1  0  0  0  0
 16 17  1  0  0  0  0
 17 18  2  0  0  0  0
 13 18  1  0  0  0  0
 18 19  1  0  0  0  0
 19 20  2  0  0  0  0
 20 21  1  0  0  0  0
 17 21  1  0  0  0  0
 21 22  1  0  0  0  0
 22 23  2  0  0  0  0
 23 24  1  0  0  0  0
 24 25  2  0  0  0  0
 25 26  1  0  0  0  0
 26 27  1  0  0  0  0
 26 28  2  0  0  0  0
 22 28  1  0  0  0  0
M  END
> <ID>
CPD_4195

$$$$
CPD_4200
  Mrv1822 09091914012D          

 17 18  0  0  0  0            999 V2000
    2.1434   -0.4125    0.0000 C   0  0  0  0  0  0  0  0  0  0  0  0
    2.1434   -1.2375    0.0000 C   0  0  0  0  0  0  0  0  0  0  0  0
    2.8579   -1.6500    0.0000 C   0  0  0  0  0  0  0  0  0  0  0  0
    2.8579   -2.4750    0.0000 C   0  0  0  0  0  0  0  0  0  0  0  0
    2.1434   -2.8875    0.0000 C   0  0  0  0  0  0  0  0  0  0  0  0
    1.4289   -2.4750    0.0000 C   0  0  0  0  0  0  0  0  0  0  0  0
    1.4289   -1.6500    0.0000 C   0  0  0  0  0  0  0  0  0  0  0  0
    0.7145   -2.8875    0.0000 N   0  0  0  0  0  0  0  0  0  0  0  0
    0.0000   -2.4750    0.0000 C   0  0  0  0  0  0  0  0  0  0  0  0
   -0.7145   -2.8875    0.0000 C   0  0  0  0  0  0  0  0  0  0  0  0
   -1.4289   -2.4750    0.0000 C   0  0  0  0  0  0  0  0  0  0  0  0
   -2.1434   -2.8875    0.0000 N   0  0  0  0  0  0  0  0  0  0  0  0
   -1.4289   -1.6500    0.0000 C   0  0  0  0  0  0  0  0  0  0  0  0
   -2.1434   -1.2375    0.0000 F   0  0  0  0  0  0  0  0  0  0  0  0
   -0.7145   -1.2375    0.0000 C   0  0  0  0  0  0  0  0  0  0  0  0
    0.0000   -1.6500    0.0000 C   0  0  0  0  0  0  0  0  0  0  0  0
    0.7145   -1.2375    0.0000 Cl  0  0  0  0  0  0  0  0  0  0  0  0
  1  2  1  0  0  0  0
  2  3  1  0  0  0  0
  3  4  1  0  0  0  0
  4  5  1  0  0  0  0
  5  6  1  0  0  0  0
  6  7  1  0  0  0  0
  2  7  1  0  0  0  0
  6  8  2  0  0  0  0
  8  9  1  4  0  0  0
  9 10  2  0  0  0  0
 10 11  1  0  0  0  0
 11 12  1  0  0  0  0
 11 13  2  0  0  0  0
 13 14  1  0  0  0  0
 13 15  1  0  0  0  0
 15 16  2  0  0  0  0
  9 16  1  0  0  0  0
 16 17  1  0  0  0  0
M  END
> <ID>
CPD_4200

$$$$
CPD_4205
  Mrv1822 09091914012D          

 25 28  0  0  0  0            999 V2000
    4.9071    4.3069    0.0000 C   0  0  0  0  0  0  0  0  0  0  0  0
    4.0866    4.2207    0.0000 C   0  0  0  0  0  0  0  0  0  0  0  0
    3.6017    4.8881    0.0000 C   0  0  0  0  0  0  0  0  0  0  0  0
    3.7511    3.4670    0.0000 C   0  0  0  0  0  0  0  0  0  0  0  0
    4.1636    2.7525    0.0000 C   0  0  0  0  0  0  0  0  0  0  0  0
    3.6116    2.1394    0.0000 S   0  0  0  0  0  0  0  0  0  0  0  0
    2.8579    2.4750    0.0000 C   0  0  0  0  0  0  0  0  0  0  0  0
    2.1434    2.0625    0.0000 N   0  0  0  0  0  0  0  0  0  0  0  0
    2.1434    1.2375    0.0000 C   0  0  0  0  0  0  0  0  0  0  0  0
    2.8579    0.8250    0.0000 C   0  0  0  0  0  0  0  0  0  0  0  0
    2.8579   -0.0000    0.0000 C   0  0  0  0  0  0  0  0  0  0  0  0
    3.5724   -0.4125    0.0000 C   0  0  0  0  0  0  0  0  0  0  0  0
    4.2868   -0.0000    0.0000 C   0  0  0  0  0  0  0  0  0  0  0  0
    4.2868    0.8250    0.0000 C   0  0  0  0  0  0  0  0  0  0  0  0
    3.5724    1.2375    0.0000 C   0  0  0  0  0  0  0  0  0  0  0  0
    2.1434   -0.4125    0.0000 C   0  0  0  0  0  0  0  0  0  0  0  0
    2.1434   -1.2375    0.0000 O   0  0  0  0  0  0  0  0  0  0  0  0
    1.4289    0.0000    0.0000 C   0  0  0  0  0  0  0  0  0  0  0  0
    0.7145   -0.4125    0.0000 C   0  0  0  0  0  0  0  0  0  0  0  0
    0.0000    0.0000    0.0000 C   0  0  0  0  0  0  0  0  0  0  0  0
    0.0000    0.8250    0.0000 C   0  0  0  0  0  0  0  0  0  0  0  0
    0.7145    1.2375    0.0000 C   0  0  0  0  0  0  0  0  0  0  0  0
    0.7145    2.0625    0.0000 O   0  0  0  0  0  0  0  0  0  0  0  0
    1.4289    0.8250    0.0000 C   0  0  0  0  0  0  0  0  0  0  0  0
    2.9441    3.2955    0.0000 N   0  0  0  0  0  0  0  0  0  0  0  0
  1  2  1  0  0  0  0
  2  3  1  0  0  0  0
  2  4  1  0  0  0  0
  4  5  2  0  0  0  0
  5  6  1  0  0  0  0
  6  7  1  0  0  0  0
  8  7  1  4  0  0  0
  8  9  2  0  0  0  0
  9 10  1  0  0  0  0
 10 11  2  0  0  0  0
 11 12  1  0  0  0  0
 12 13  2  0  0  0  0
 13 14  1  0  0  0  0
 14 15  2  0  0  0  0
 10 15  1  0  0  0  0
 11 16  1  0  0  0  0
 16 17  2  0  0  0  0
 16 18  1  0  0  0  0
 18 19  2  0  0  0  0
 19 20  1  0  0  0  0
 20 21  2  0  0  0  0
 21 22  1  0  0  0  0
 22 23  1  0  0  0  0
 22 24  2  0  0  0  0
  9 24  1  0  0  0  0
 18 24  1  0  0  0  0
  7 25  2  0  0  0  0
  4 25  1  0  0  0  0
M  END
> <ID>
CPD_4205

$$$$
CPD_4210
  Mrv1822 09091914012D          

 26 29  0  0  0  0            999 V2000
   -6.4302    1.3651    0.0000 C   0  0  0  0  0  0  0  0  0  0  0  0
   -7.1447    1.7776    0.0000 C   0  0  0  0  0  0  0  0  0  0  0  0
   -7.8592    1.3651    0.0000 C   0  0  0  0  0  0  0  0  0  0  0  0
   -8.5737    1.7776    0.0000 N   0  0  0  0  0  0  0  0  0  0  0  0
   -9.2881    1.3651    0.0000 C   0  0  0  0  0  0  0  0  0  0  0  0
   -8.5737    2.6026    0.0000 C   0  0  0  0  0  0  0  0  0  0  0  0
   -7.8592    3.0151    0.0000 C   0  0  0  0  0  0  0  0  0  0  0  0
   -7.1447    2.6026    0.0000 C   0  0  0  0  0  0  0  0  0  0  0  0
   -6.4302    3.0151    0.0000 N   0  0  0  0  0  0  0  0  0  0  0  0
   -5.7158    2.6026    0.0000 C   0  0  0  0  0  0  0  0  0  0  0  0
   -5.0013    3.0151    0.0000 C   0  0  0  0  0  0  0  0  0  0  0  0
   -4.2868    2.6026    0.0000 N   0  0  0  0  0  0  0  0  0  0  0  0
   -4.2868    1.7776    0.0000 C   0  0  0  0  0  0  0  0  0  0  0  0
   -3.5724    1.3651    0.0000 N   0  0  0  0  0  0  0  0  0  0  0  0
   -3.5724    0.5401    0.0000 C   0  0  0  0  0  0  0  0  0  0  0  0
   -3.1599   -0.1743    0.0000 C   0  0  0  0  0  0  0  0  0  0  0  0
   -3.9849   -0.1743    0.0000 C   0  0  0  0  0  0  0  0  0  0  0  0
   -5.0013    1.3651    0.0000 C   0  0  0  0  0  0  0  0  0  0  0  0
   -5.0013    0.5401    0.0000 Br  0  0  0  0  0  0  0  0  0  0  0  0
   -5.7158    1.7776    0.0000 C   0  0  0  0  0  0  0  0  0  0  0  0
   -7.8592    0.5401    0.0000 C   0  0  0  0  0  0  0  0  0  0  0  0
   -7.1447    0.1276    0.0000 C   0  0  0  0  0  0  0  0  0  0  0  0
   -7.1447   -0.6974    0.0000 C   0  0  0  0  0  0  0  0  0  0  0  0
   -7.8592   -1.1099    0.0000 C   0  0  0  0  0  0  0  0  0  0  0  0
   -8.5737   -0.6974    0.0000 C   0  0  0  0  0  0  0  0  0  0  0  0
   -8.5737    0.1276    0.0000 C   0  0  0  0  0  0  0  0  0  0  0  0
  1  2  1  0  0  0  0
  2  3  1  0  0  0  0
  3  4  1  0  0  0  0
  4  5  1  0  0  0  0
  4  6  1  0  0  0  0
  6  7  1  0  0  0  0
  7  8  1  0  0  0  0
  2  8  1  0  0  0  0
  8  9  2  0  0  0  0
  9 10  1  4  0  0  0
 10 11  2  0  0  0  0
 11 12  1  0  0  0  0
 12 13  2  0  0  0  0
 13 14  1  0  0  0  0
 14 15  1  0  0  0  0
 15 16  1  0  0  0  0
 16 17  1  0  0  0  0
 15 17  1  0  0  0  0
 13 18  1  0  0  0  0
 18 19  1  0  0  0  0
 18 20  2  0  0  0  0
 10 20  1  0  0  0  0
  3 21  1  0  0  0  0
 21 22  2  0  0  0  0
 22 23  1  0  0  0  0
 23 24  2  0  0  0  0
 24 25  1  0  0  0  0
 25 26  2  0  0  0  0
 21 26  1  0  0  0  0
M  END
> <ID>
CPD_4210

$$$$
CPD_4215
  Mrv1822 09091914012D          

 33 36  0  0  0  0            999 V2000
    1.4780   -4.9454    0.0000 C   0  0  0  0  0  0  0  0  0  0  0  0
    1.7329   -4.1608    0.0000 C   0  0  0  0  0  0  0  0  0  0  0  0
    1.1809   -3.5477    0.0000 N   0  0  0  0  0  0  0  0  0  0  0  0
    0.3739   -3.7192    0.0000 C   0  0  0  0  0  0  0  0  0  0  0  0
   -0.1781   -3.1062    0.0000 C   0  0  0  0  0  0  0  0  0  0  0  0
    1.4358   -2.7631    0.0000 C   0  0  0  0  0  0  0  0  0  0  0  0
    2.2428   -2.5916    0.0000 O   0  0  0  0  0  0  0  0  0  0  0  0
    0.8838   -2.1500    0.0000 C   0  0  0  0  0  0  0  0  0  0  0  0
    1.1387   -1.3654    0.0000 N   0  0  0  0  0  0  0  0  0  0  0  0
    0.6538   -0.6979    0.0000 C   0  0  0  0  0  0  0  0  0  0  0  0
   -0.1712   -0.6979    0.0000 O   0  0  0  0  0  0  0  0  0  0  0  0
    1.1387   -0.0305    0.0000 C   0  0  0  0  0  0  0  0  0  0  0  0
    0.8838    0.7541    0.0000 N   0  0  0  0  0  0  0  0  0  0  0  0
    1.4358    1.3672    0.0000 C   0  0  0  0  0  0  0  0  0  0  0  0
    1.2643    2.1742    0.0000 N   0  0  0  0  0  0  0  0  0  0  0  0
    1.9788    2.5867    0.0000 N   0  0  0  0  0  0  0  0  0  0  0  0
    2.5919    2.0347    0.0000 C   0  0  0  0  0  0  0  0  0  0  0  0
    3.3988    2.2062    0.0000 O   0  0  0  0  0  0  0  0  0  0  0  0
    2.2563    1.2810    0.0000 C   0  0  0  0  0  0  0  0  0  0  0  0
    2.0650    3.4072    0.0000 C   0  0  0  0  0  0  0  0  0  0  0  0
    1.3976    3.8921    0.0000 N   0  0  0  0  0  0  0  0  0  0  0  0
    1.4838    4.7126    0.0000 C   0  0  0  0  0  0  0  0  0  0  0  0
    0.8164    5.1975    0.0000 C   0  0  0  0  0  0  0  0  0  0  0  0
    2.2375    5.0481    0.0000 C   0  0  0  0  0  0  0  0  0  0  0  0
    2.9049    4.5632    0.0000 C   0  0  0  0  0  0  0  0  0  0  0  0
    3.6586    4.8988    0.0000 C   0  0  0  0  0  0  0  0  0  0  0  0
    2.8187    3.7427    0.0000 N   0  0  0  0  0  0  0  0  0  0  0  0
    1.9233   -0.2854    0.0000 C   0  0  0  0  0  0  0  0  0  0  0  0
    2.6378    0.1271    0.0000 C   0  0  0  0  0  0  0  0  0  0  0  0
    3.3523   -0.2854    0.0000 C   0  0  0  0  0  0  0  0  0  0  0  0
    3.3523   -1.1104    0.0000 C   0  0  0  0  0  0  0  0  0  0  0  0
    2.6378   -1.5229    0.0000 C   0  0  0  0  0  0  0  0  0  0  0  0
    1.9233   -1.1104    0.0000 C   0  0  0  0  0  0  0  0  0  0  0  0
  1  2  1  0  0  0  0
  2  3  1  0  0  0  0
  3  4  1  0  0  0  0
  4  5  1  0  0  0  0
  3  6  1  0  0  0  0
  6  7  2  0  0  0  0
  6  8  1  0  0  0  0
  8  9  1  0  0  0  0
  9 10  1  0  0  0  0
 10 11  2  0  0  0  0
 10 12  1  0  0  0  0
 12 13  2  0  0  0  0
 13 14  1  4  0  0  0
 14 15  2  0  0  0  0
 15 16  1  0  0  0  0
 16 17  1  0  0  0  0
 17 18  2  0  0  0  0
 17 19  1  0  0  0  0
 14 19  1  0  0  0  0
 16 20  1  0  0  0  0
 20 21  2  0  0  0  0
 21 22  1  0  0  0  0
 22 23  1  0  0  0  0
 22 24  2  0  0  0  0
 24 25  1  0  0  0  0
 25 26  1  0  0  0  0
 25 27  2  0  0  0  0
 20 27  1  0  0  0  0
 12 28  1  0  0  0  0
 28 29  2  0  0  0  0
 29 30  1  0  0  0  0
 30 31  2  0  0  0  0
 31 32  1  0  0  0  0
 32 33  2  0  0  0  0
  9 33  1  0  0  0  0
 28 33  1  0  0  0  0
M  END
> <ID>
CPD_4215

$$$$
CPD_4220
  Mrv1822 09091914012D          

 27 29  0  0  0  0            999 V2000
    4.2868    0.0000    0.0000 C   0  0  0  0  0  0  0  0  0  0  0  0
    5.0013   -0.4125    0.0000 C   0  0  0  0  0  0  0  0  0  0  0  0
    5.0013   -1.2375    0.0000 C   0  0  0  0  0  0  0  0  0  0  0  0
    5.7158   -1.6500    0.0000 N   0  0  0  0  0  0  0  0  0  0  0  0
    5.7158   -2.4750    0.0000 C   0  0  0  0  0  0  0  0  0  0  0  0
    6.4302   -2.8875    0.0000 N   0  0  0  0  0  0  0  0  0  0  0  0
    6.4302   -3.7125    0.0000 C   0  0  0  0  0  0  0  0  0  0  0  0
    7.1447   -4.1250    0.0000 C   0  0  0  0  0  0  0  0  0  0  0  0
    7.1447   -4.9500    0.0000 C   0  0  0  0  0  0  0  0  0  0  0  0
    6.4302   -5.3625    0.0000 N   0  0  0  0  0  0  0  0  0  0  0  0
    6.4302   -6.1875    0.0000 C   0  0  0  0  0  0  0  0  0  0  0  0
    5.7158   -6.6000    0.0000 C   0  0  0  0  0  0  0  0  0  0  0  0
    5.7158   -7.4250    0.0000 N   0  0  0  0  0  0  0  0  0  0  0  0
    5.0013   -7.8375    0.0000 C   0  0  0  0  0  0  0  0  0  0  0  0
    4.2868   -7.4250    0.0000 C   0  0  0  0  0  0  0  0  0  0  0  0
    4.2868   -6.6000    0.0000 C   0  0  0  0  0  0  0  0  0  0  0  0
    5.0013   -6.1875    0.0000 C   0  0  0  0  0  0  0  0  0  0  0  0
    5.0013   -5.3625    0.0000 Cl  0  0  0  0  0  0  0  0  0  0  0  0
    3.5724   -7.8375    0.0000 C   0  0  0  0  0  0  0  0  0  0  0  0
    2.8579   -8.2500    0.0000 F   0  0  0  0  0  0  0  0  0  0  0  0
    3.1599   -7.1230    0.0000 F   0  0  0  0  0  0  0  0  0  0  0  0
    3.9849   -8.5520    0.0000 F   0  0  0  0  0  0  0  0  0  0  0  0
    5.7158   -4.9500    0.0000 C   0  0  0  0  0  0  0  0  0  0  0  0
    5.7158   -4.1250    0.0000 C   0  0  0  0  0  0  0  0  0  0  0  0
    5.0013   -2.8875    0.0000 N   0  0  0  0  0  0  0  0  0  0  0  0
    4.2868   -2.4750    0.0000 C   0  0  0  0  0  0  0  0  0  0  0  0
    4.2868   -1.6500    0.0000 C   0  0  0  0  0  0  0  0  0  0  0  0
  1  2  1  0  0  0  0
  2  3  1  0  0  0  0
  3  4  2  0  0  0  0
  4  5  1  0  0  0  0
  5  6  1  0  0  0  0
  6  7  2  0  0  0  0
  7  8  1  0  0  0  0
  8  9  1  0  0  0  0
  9 10  1  0  0  0  0
 10 11  1  0  0  0  0
 11 12  1  0  0  0  0
 12 13  2  0  0  0  0
 13 14  1  0  0  0  0
 14 15  2  0  0  0  0
 15 16  1  0  0  0  0
 16 17  2  0  0  0  0
 12 17  1  0  0  0  0
 17 18  1  0  0  0  0
 15 19  1  0  0  0  0
 19 20  1  0  0  0  0
 19 21  1  0  0  0  0
 19 22  1  0  0  0  0
 10 23  1  0  0  0  0
 23 24  1  0  0  0  0
  7 24  1  0  0  0  0
  5 25  2  0  0  0  0
 25 26  1  0  0  0  0
 26 27  2  0  0  0  0
  3 27  1  0  0  0  0
M  END
> <ID>
CPD_4220

$$$$
CPD_4225
  Mrv1822 09091914012D          

 26 28  0  0  0  0            999 V2000
    0.7145    4.5375    0.0000 C   0  0  0  0  0  0  0  0  0  0  0  0
    0.7145    3.7125    0.0000 O   0  0  0  0  0  0  0  0  0  0  0  0
    0.0000    3.3000    0.0000 C   0  0  0  0  0  0  0  0  0  0  0  0
   -0.7145    3.7125    0.0000 O   0  0  0  0  0  0  0  0  0  0  0  0
    0.0000    2.4750    0.0000 C   0  0  0  0  0  0  0  0  0  0  0  0
   -0.7145    2.0625    0.0000 C   0  0  0  0  0  0  0  0  0  0  0  0
   -0.7145    1.2375    0.0000 C   0  0  0  0  0  0  0  0  0  0  0  0
   -1.4289    0.8250    0.0000 C   0  0  0  0  0  0  0  0  0  0  0  0
   -2.1434    1.2375    0.0000 C   0  0  0  0  0  0  0  0  0  0  0  0
   -2.8579    0.8250    0.0000 N   0  0  0  0  0  0  0  0  0  0  0  0
   -2.1434    2.0625    0.0000 C   0  0  0  0  0  0  0  0  0  0  0  0
   -1.4289    2.4750    0.0000 C   0  0  0  0  0  0  0  0  0  0  0  0
    0.0000    0.8250    0.0000 N   0  0  0  0  0  0  0  0  0  0  0  0
    0.0000   -0.0000    0.0000 C   0  0  0  0  0  0  0  0  0  0  0  0
   -0.7145   -0.4125    0.0000 C   0  0  0  0  0  0  0  0  0  0  0  0
   -0.7145   -1.2375    0.0000 C   0  0  0  0  0  0  0  0  0  0  0  0
    0.0000   -1.6500    0.0000 C   0  0  0  0  0  0  0  0  0  0  0  0
    0.0000   -2.4750    0.0000 O   0  0  0  0  0  0  0  0  0  0  0  0
    0.7145   -1.2375    0.0000 C   0  0  0  0  0  0  0  0  0  0  0  0
    0.7145   -0.4125    0.0000 C   0  0  0  0  0  0  0  0  0  0  0  0
    1.4289   -0.0000    0.0000 C   0  0  0  0  0  0  0  0  0  0  0  0
    1.4289    0.8250    0.0000 O   0  0  0  0  0  0  0  0  0  0  0  0
    2.1434   -0.4125    0.0000 C   0  0  0  0  0  0  0  0  0  0  0  0
    2.1434   -1.2375    0.0000 C   0  0  0  0  0  0  0  0  0  0  0  0
    1.4289   -1.6500    0.0000 C   0  0  0  0  0  0  0  0  0  0  0  0
    1.4289   -2.4750    0.0000 O   0  0  0  0  0  0  0  0  0  0  0  0
  1  2  1  0  0  0  0
  2  3  1  0  0  0  0
  3  4  2  0  0  0  0
  3  5  1  0  0  0  0
  5  6  1  0  0  0  0
  6  7  2  0  0  0  0
  7  8  1  0  0  0  0
  8  9  2  0  0  0  0
  9 10  1  0  0  0  0
  9 11  1  0  0  0  0
 11 12  2  0  0  0  0
  6 12  1  0  0  0  0
 13  7  1  4  0  0  0
 13 14  2  0  0  0  0
 14 15  1  0  0  0  0
 15 16  2  0  0  0  0
 16 17  1  0  0  0  0
 17 18  2  0  0  0  0
 17 19  1  0  0  0  0
 19 20  2  0  0  0  0
 14 20  1  0  0  0  0
 20 21  1  0  0  0  0
 21 22  1  0  0  0  0
 21 23  2  0  0  0  0
 23 24  1  0  0  0  0
 24 25  2  0  0  0  0
 19 25  1  0  0  0  0
 25 26  1  0  0  0  0
M  END
> <ID>
CPD_4225

$$$$
CPD_4230
  Mrv1822 09091914012D          

 30 34  0  0  0  0            999 V2000
    4.8958    8.0872    0.0000 C   0  0  0  0  0  0  0  0  0  0  0  0
    4.6409    7.3026    0.0000 O   0  0  0  0  0  0  0  0  0  0  0  0
    5.1929    6.6895    0.0000 C   0  0  0  0  0  0  0  0  0  0  0  0
    5.9999    6.8610    0.0000 O   0  0  0  0  0  0  0  0  0  0  0  0
    4.9380    5.9049    0.0000 C   0  0  0  0  0  0  0  0  0  0  0  0
    5.4900    5.2918    0.0000 C   0  0  0  0  0  0  0  0  0  0  0  0
    5.2351    4.5071    0.0000 C   0  0  0  0  0  0  0  0  0  0  0  0
    5.7871    3.8940    0.0000 Cl  0  0  0  0  0  0  0  0  0  0  0  0
    4.4281    4.3356    0.0000 C   0  0  0  0  0  0  0  0  0  0  0  0
    3.8761    4.9487    0.0000 C   0  0  0  0  0  0  0  0  0  0  0  0
    4.1310    5.7333    0.0000 C   0  0  0  0  0  0  0  0  0  0  0  0
    4.1732    3.5510    0.0000 N   0  0  0  0  0  0  0  0  0  0  0  0
    4.7252    2.9379    0.0000 C   0  0  0  0  0  0  0  0  0  0  0  0
    4.4703    2.1533    0.0000 C   0  0  0  0  0  0  0  0  0  0  0  0
    3.6633    1.9817    0.0000 N   0  0  0  0  0  0  0  0  0  0  0  0
    3.1113    2.5948    0.0000 C   0  0  0  0  0  0  0  0  0  0  0  0
    3.3662    3.3795    0.0000 C   0  0  0  0  0  0  0  0  0  0  0  0
    3.4084    1.1971    0.0000 C   0  0  0  0  0  0  0  0  0  0  0  0
    3.9604    0.5840    0.0000 C   0  0  0  0  0  0  0  0  0  0  0  0
    3.7054   -0.2006    0.0000 C   0  0  0  0  0  0  0  0  0  0  0  0
    2.8985   -0.3721    0.0000 C   0  0  0  0  0  0  0  0  0  0  0  0
    2.3464    0.2410    0.0000 C   0  0  0  0  0  0  0  0  0  0  0  0
    2.6014    1.0256    0.0000 C   0  0  0  0  0  0  0  0  0  0  0  0
    1.9339    1.5105    0.0000 N   0  0  0  0  0  0  0  0  0  0  0  0
    1.2665    1.0256    0.0000 C   0  0  0  0  0  0  0  0  0  0  0  0
    1.5214    0.2410    0.0000 C   0  0  0  0  0  0  0  0  0  0  0  0
    0.9694   -0.3721    0.0000 C   0  0  0  0  0  0  0  0  0  0  0  0
    0.1624   -0.2006    0.0000 C   0  0  0  0  0  0  0  0  0  0  0  0
   -0.0925    0.5840    0.0000 C   0  0  0  0  0  0  0  0  0  0  0  0
    0.4595    1.1971    0.0000 C   0  0  0  0  0  0  0  0  0  0  0  0
  1  2  1  0  0  0  0
  2  3  1  0  0  0  0
  3  4  2  0  0  0  0
  3  5  1  0  0  0  0
  5  6  2  0  0  0  0
  6  7  1  0  0  0  0
  7  8  1  0  0  0  0
  7  9  2  0  0  0  0
  9 10  1  0  0  0  0
 10 11  2  0  0  0  0
  5 11  1  0  0  0  0
  9 12  1  0  0  0  0
 12 13  1  0  0  0  0
 13 14  1  0  0  0  0
 14 15  1  0  0  0  0
 15 16  1  0  0  0  0
 16 17  1  0  0  0  0
 12 17  1  0  0  0  0
 15 18  1  0  0  0  0
 18 19  2  0  0  0  0
 19 20  1  0  0  0  0
 20 21  1  0  0  0  0
 21 22  1  0  0  0  0
 22 23  2  0  0  0  0
 18 23  1  0  0  0  0
 23 24  1  0  0  0  0
 24 25  1  0  0  0  0
 25 26  2  0  0  0  0
 22 26  1  0  0  0  0
 26 27  1  0  0  0  0
 27 28  2  0  0  0  0
 28 29  1  0  0  0  0
 29 30  2  0  0  0  0
 25 30  1  0  0  0  0
M  END
> <ID>
CPD_4230

$$$$
CPD_4235
  Mrv1822 09091914012D          

 29 32  0  0  0  0            999 V2000
    5.0013    3.7125    0.0000 C   0  0  0  0  0  0  0  0  0  0  0  0
    4.2868    3.3000    0.0000 N   0  0  0  0  0  0  0  0  0  0  0  0
    4.2868    2.4750    0.0000 C   0  0  0  0  0  0  0  0  0  0  0  0
    5.0013    2.0625    0.0000 N   0  0  0  0  0  0  0  0  0  0  0  0
    5.0013    1.2375    0.0000 C   0  0  0  0  0  0  0  0  0  0  0  0
    4.2868    0.8250    0.0000 N   0  0  0  0  0  0  0  0  0  0  0  0
    3.5724    1.2375    0.0000 C   0  0  0  0  0  0  0  0  0  0  0  0
    2.8579    0.8250    0.0000 C   0  0  0  0  0  0  0  0  0  0  0  0
    2.8579    0.0000    0.0000 C   0  0  0  0  0  0  0  0  0  0  0  0
    3.5724   -0.4125    0.0000 C   0  0  0  0  0  0  0  0  0  0  0  0
    3.5724   -1.2375    0.0000 C   0  0  0  0  0  0  0  0  0  0  0  0
    2.8579   -1.6500    0.0000 C   0  0  0  0  0  0  0  0  0  0  0  0
    2.1434   -1.2375    0.0000 N   0  0  0  0  0  0  0  0  0  0  0  0
    2.1434   -0.4125    0.0000 C   0  0  0  0  0  0  0  0  0  0  0  0
    1.4289   -1.6500    0.0000 C   0  0  0  0  0  0  0  0  0  0  0  0
    1.4289   -2.4750    0.0000 C   0  0  0  0  0  0  0  0  0  0  0  0
    0.7145   -2.8875    0.0000 C   0  0  0  0  0  0  0  0  0  0  0  0
   -0.0000   -2.4750    0.0000 C   0  0  0  0  0  0  0  0  0  0  0  0
   -0.0000   -1.6500    0.0000 C   0  0  0  0  0  0  0  0  0  0  0  0
    0.7145   -1.2375    0.0000 C   0  0  0  0  0  0  0  0  0  0  0  0
    0.7145   -0.4125    0.0000 C   0  0  0  0  0  0  0  0  0  0  0  0
   -0.0000    0.0000    0.0000 C   0  0  0  0  0  0  0  0  0  0  0  0
   -0.0000    0.8250    0.0000 C   0  0  0  0  0  0  0  0  0  0  0  0
    0.7145    1.2375    0.0000 C   0  0  0  0  0  0  0  0  0  0  0  0
    1.4289    0.8250    0.0000 C   0  0  0  0  0  0  0  0  0  0  0  0
    2.1434    1.2375    0.0000 O   0  0  0  0  0  0  0  0  0  0  0  0
    2.1434    2.0625    0.0000 C   0  0  0  0  0  0  0  0  0  0  0  0
    1.4289    0.0000    0.0000 C   0  0  0  0  0  0  0  0  0  0  0  0
    3.5724    2.0625    0.0000 C   0  0  0  0  0  0  0  0  0  0  0  0
  1  2  1  0  0  0  0
  2  3  1  0  0  0  0
  3  4  2  0  0  0  0
  4  5  1  0  0  0  0
  5  6  2  0  0  0  0
  6  7  1  0  0  0  0
  7  8  1  0  0  0  0
  8  9  1  0  0  0  0
  9 10  1  0  0  0  0
 10 11  1  0  0  0  0
 11 12  1  0  0  0  0
 12 13  1  0  0  0  0
 13 14  1  0  0  0  0
  9 14  1  0  0  0  0
 13 15  1  0  0  0  0
 15 16  2  0  0  0  0
 16 17  1  0  0  0  0
 17 18  1  0  0  0  0
 18 19  1  0  0  0  0
 19 20  1  0  0  0  0
 15 20  1  0  0  0  0
 20 21  1  0  0  0  0
 21 22  2  0  0  0  0
 22 23  1  0  0  0  0
 23 24  2  0  0  0  0
 24 25  1  0  0  0  0
 25 26  1  0  0  0  0
 26 27  1  0  0  0  0
 25 28  2  0  0  0  0
 21 28  1  0  0  0  0
  7 29  2  0  0  0  0
  3 29  1  0  0  0  0
M  END
> <ID>
CPD_4235

$$$$
CPD_4240
  Mrv1822 09091914012D          

 27 30  0  0  0  0            999 V2000
   -0.7145    1.2375    0.0000 C   0  0  0  0  0  0  0  0  0  0  0  0
    0.0000    0.8250    0.0000 N   0  0  0  0  0  0  0  0  0  0  0  0
    0.7145    1.2375    0.0000 C   0  0  0  0  0  0  0  0  0  0  0  0
    0.7145    2.0625    0.0000 N   0  0  0  0  0  0  0  0  0  0  0  0
    1.4289    2.4750    0.0000 C   0  0  0  0  0  0  0  0  0  0  0  0
    2.1434    2.0625    0.0000 N   0  0  0  0  0  0  0  0  0  0  0  0
    2.1434    1.2375    0.0000 C   0  0  0  0  0  0  0  0  0  0  0  0
    2.8579    0.8250    0.0000 C   0  0  0  0  0  0  0  0  0  0  0  0
    3.5724    1.2375    0.0000 C   0  0  0  0  0  0  0  0  0  0  0  0
    3.5724    2.0625    0.0000 C   0  0  0  0  0  0  0  0  0  0  0  0
    4.2868    2.4750    0.0000 C   0  0  0  0  0  0  0  0  0  0  0  0
    5.0013    2.0625    0.0000 C   0  0  0  0  0  0  0  0  0  0  0  0
    5.0013    1.2375    0.0000 N   0  0  0  0  0  0  0  0  0  0  0  0
    4.2868    0.8250    0.0000 C   0  0  0  0  0  0  0  0  0  0  0  0
    1.4289    0.8250    0.0000 C   0  0  0  0  0  0  0  0  0  0  0  0
    0.0000   -0.0000    0.0000 C   0  0  0  0  0  0  0  0  0  0  0  0
   -0.7145   -0.4125    0.0000 C   0  0  0  0  0  0  0  0  0  0  0  0
   -0.7145   -1.2375    0.0000 C   0  0  0  0  0  0  0  0  0  0  0  0
   -1.4289   -1.6500    0.0000 O   0  0  0  0  0  0  0  0  0  0  0  0
    0.0000   -1.6500    0.0000 C   0  0  0  0  0  0  0  0  0  0  0  0
    0.0000   -2.4750    0.0000 O   0  0  0  0  0  0  0  0  0  0  0  0
    0.7145   -1.2375    0.0000 C   0  0  0  0  0  0  0  0  0  0  0  0
    0.7145   -0.4125    0.0000 C   0  0  0  0  0  0  0  0  0  0  0  0
    1.4289   -0.0000    0.0000 C   0  0  0  0  0  0  0  0  0  0  0  0
    2.1434   -0.4125    0.0000 C   0  0  0  0  0  0  0  0  0  0  0  0
    2.1434   -1.2375    0.0000 C   0  0  0  0  0  0  0  0  0  0  0  0
    1.4289   -1.6500    0.0000 C   0  0  0  0  0  0  0  0  0  0  0  0
  1  2  1  0  0  0  0
  2  3  1  0  0  0  0
  3  4  2  0  0  0  0
  4  5  1  0  0  0  0
  5  6  2  0  0  0  0
  6  7  1  0  0  0  0
  7  8  1  0  0  0  0
  8  9  1  0  0  0  0
  9 10  1  0  0  0  0
 10 11  1  0  0  0  0
 11 12  1  0  0  0  0
 12 13  1  0  0  0  0
 13 14  1  0  0  0  0
  9 14  1  0  0  0  0
  7 15  2  0  0  0  0
  3 15  1  0  0  0  0
  2 16  1  0  0  0  0
 16 17  2  0  0  0  0
 17 18  2  0  0  0  0
 18 19  1  0  0  0  0
 18 20  1  0  0  0  0
 20 21  2  0  0  0  0
 20 22  1  0  0  0  0
 22 23  2  0  0  0  0
 16 23  1  0  0  0  0
 23 24  1  0  0  0  0
 24 25  2  0  0  0  0
 25 26  1  0  0  0  0
 26 27  2  0  0  0  0
 22 27  1  0  0  0  0
M  END
> <ID>
CPD_4240

$$$$
CPD_4245
  Mrv1822 09091914012D          

 24 27  0  0  0  0            999 V2000
    8.3700    0.1060    0.0000 F   0  0  0  0  0  0  0  0  0  0  0  0
    7.7380    0.6363    0.0000 C   0  0  0  0  0  0  0  0  0  0  0  0
    8.3700    1.1666    0.0000 F   0  0  0  0  0  0  0  0  0  0  0  0
    7.3255   -0.0781    0.0000 C   0  0  0  0  0  0  0  0  0  0  0  0
    6.5005   -0.0781    0.0000 C   0  0  0  0  0  0  0  0  0  0  0  0
    6.0880    0.6363    0.0000 C   0  0  0  0  0  0  0  0  0  0  0  0
    5.2630    0.6363    0.0000 N   0  0  0  0  0  0  0  0  0  0  0  0
    4.8505   -0.0781    0.0000 C   0  0  0  0  0  0  0  0  0  0  0  0
    4.0255   -0.0781    0.0000 C   0  0  0  0  0  0  0  0  0  0  0  0
    3.6130    0.6363    0.0000 C   0  0  0  0  0  0  0  0  0  0  0  0
    4.0255    1.3508    0.0000 C   0  0  0  0  0  0  0  0  0  0  0  0
    4.8505    1.3508    0.0000 C   0  0  0  0  0  0  0  0  0  0  0  0
    2.7880    0.6363    0.0000 N   0  0  0  0  0  0  0  0  0  0  0  0
    2.4300    1.3796    0.0000 C   0  0  0  0  0  0  0  0  0  0  0  0
    1.6257    1.5632    0.0000 C   0  0  0  0  0  0  0  0  0  0  0  0
    0.9807    1.0488    0.0000 C   0  0  0  0  0  0  0  0  0  0  0  0
    0.9807    0.2238    0.0000 C   0  0  0  0  0  0  0  0  0  0  0  0
    1.6257   -0.2905    0.0000 C   0  0  0  0  0  0  0  0  0  0  0  0
    2.4300   -0.1070    0.0000 C   0  0  0  0  0  0  0  0  0  0  0  0
    1.3940    0.6363    0.0000 O   0  0  0  0  0  0  0  0  0  0  0  0
    6.5005    1.3508    0.0000 C   0  0  0  0  0  0  0  0  0  0  0  0
    7.3255    1.3508    0.0000 C   0  0  0  0  0  0  0  0  0  0  0  0
    6.0880    2.0653    0.0000 C   0  0  0  0  0  0  0  0  0  0  0  0
    5.6755    2.7798    0.0000 N   0  0  0  0  0  0  0  0  0  0  0  0
  1  2  1  0  0  0  0
  2  3  1  0  0  0  0
  2  4  1  0  0  0  0
  4  5  1  0  0  0  0
  5  6  1  0  0  0  0
  6  7  1  0  0  0  0
  7  8  1  0  0  0  0
  8  9  1  0  0  0  0
  9 10  1  0  0  0  0
 10 11  1  0  0  0  0
 11 12  1  0  0  0  0
  7 12  1  0  0  0  0
 10 13  1  0  0  0  0
 13 14  1  0  0  0  0
 14 15  1  0  0  0  0
 15 16  1  0  0  0  0
 16 17  1  0  0  0  0
 17 18  1  0  0  0  0
 18 19  1  0  0  0  0
 13 19  1  0  0  0  0
 18 20  1  0  0  0  0
 15 20  1  0  0  0  0
  6 21  2  0  0  0  0
 21 22  1  0  0  0  0
  2 22  1  0  0  0  0
 21 23  1  0  0  0  0
 23 24  3  0  0  0  0
M  END
> <ID>
CPD_4245

$$$$
CPD_4250
  Mrv1822 09091914012D          

 31 33  0  0  0  0            999 V2000
    2.0367   -2.9491    0.0000 C   0  0  0  0  0  0  0  0  0  0  0  0
    2.0367   -3.7741    0.0000 O   0  0  0  0  0  0  0  0  0  0  0  0
    2.7512   -4.1866    0.0000 C   0  0  0  0  0  0  0  0  0  0  0  0
    3.4656   -3.7741    0.0000 O   0  0  0  0  0  0  0  0  0  0  0  0
    2.7512   -5.0116    0.0000 C   0  0  0  0  0  0  0  0  0  0  0  0
    2.0837   -5.4965    0.0000 C   0  0  0  0  0  0  0  0  0  0  0  0
    1.2991   -5.2416    0.0000 C   0  0  0  0  0  0  0  0  0  0  0  0
    2.3387   -6.2812    0.0000 C   0  0  0  0  0  0  0  0  0  0  0  0
    1.8538   -6.9486    0.0000 C   0  0  0  0  0  0  0  0  0  0  0  0
    2.1893   -7.7023    0.0000 O   0  0  0  0  0  0  0  0  0  0  0  0
    1.0333   -6.8624    0.0000 C   0  0  0  0  0  0  0  0  0  0  0  0
    0.5484   -7.5298    0.0000 C   0  0  0  0  0  0  0  0  0  0  0  0
   -0.2721   -7.4436    0.0000 C   0  0  0  0  0  0  0  0  0  0  0  0
   -0.6077   -6.6899    0.0000 C   0  0  0  0  0  0  0  0  0  0  0  0
   -1.4282   -6.6036    0.0000 O   0  0  0  0  0  0  0  0  0  0  0  0
   -1.9131   -7.2711    0.0000 C   0  0  0  0  0  0  0  0  0  0  0  0
   -2.7336   -7.1848    0.0000 C   0  0  0  0  0  0  0  0  0  0  0  0
   -3.2185   -7.8523    0.0000 C   0  0  0  0  0  0  0  0  0  0  0  0
   -4.0390   -7.7661    0.0000 C   0  0  0  0  0  0  0  0  0  0  0  0
   -4.3745   -7.0124    0.0000 C   0  0  0  0  0  0  0  0  0  0  0  0
   -5.1950   -6.9261    0.0000 F   0  0  0  0  0  0  0  0  0  0  0  0
   -3.8896   -6.3449    0.0000 C   0  0  0  0  0  0  0  0  0  0  0  0
   -3.0691   -6.4312    0.0000 C   0  0  0  0  0  0  0  0  0  0  0  0
   -0.1228   -6.0224    0.0000 C   0  0  0  0  0  0  0  0  0  0  0  0
    0.6977   -6.1087    0.0000 C   0  0  0  0  0  0  0  0  0  0  0  0
    3.1637   -6.2812    0.0000 C   0  0  0  0  0  0  0  0  0  0  0  0
    3.4186   -5.4965    0.0000 N   0  0  0  0  0  0  0  0  0  0  0  0
    3.6486   -6.9486    0.0000 C   0  0  0  0  0  0  0  0  0  0  0  0
    4.1335   -7.6160    0.0000 F   0  0  0  0  0  0  0  0  0  0  0  0
    2.9812   -7.4335    0.0000 F   0  0  0  0  0  0  0  0  0  0  0  0
    4.3160   -6.4637    0.0000 F   0  0  0  0  0  0  0  0  0  0  0  0
  1  2  1  0  0  0  0
  2  3  1  0  0  0  0
  3  4  2  0  0  0  0
  3  5  1  0  0  0  0
  5  6  2  0  0  0  0
  6  7  1  0  0  0  0
  6  8  1  0  0  0  0
  8  9  1  0  0  0  0
  9 10  2  0  0  0  0
  9 11  1  0  0  0  0
 11 12  4  0  0  0  0
 12 13  4  0  0  0  0
 13 14  4  0  0  0  0
 14 15  1  0  0  0  0
 15 16  1  0  0  0  0
 16 17  1  0  0  0  0
 17 18  4  0  0  0  0
 18 19  4  0  0  0  0
 19 20  4  0  0  0  0
 20 21  1  0  0  0  0
 20 22  4  0  0  0  0
 22 23  4  0  0  0  0
 17 23  4  0  0  0  0
 14 24  4  0  0  0  0
 24 25  4  0  0  0  0
 11 25  4  0  0  0  0
  8 26  2  0  0  0  0
 26 27  1  0  0  0  0
  5 27  1  0  0  0  0
 26 28  1  0  0  0  0
 28 29  1  0  0  0  0
 28 30  1  0  0  0  0
 28 31  1  0  0  0  0
M  END
> <ID>
CPD_4250

$$$$
CPD_4255
  Mrv1822 09091914012D          

 27 28  0  0  0  0            999 V2000
   -0.7145   -0.4125    0.0000 C   0  0  0  0  0  0  0  0  0  0  0  0
   -0.7145   -1.2375    0.0000 O   0  0  0  0  0  0  0  0  0  0  0  0
   -1.4289   -1.6500    0.0000 C   0  0  0  0  0  0  0  0  0  0  0  0
   -2.1434   -1.2375    0.0000 C   0  0  0  0  0  0  0  0  0  0  0  0
   -2.8579   -1.6500    0.0000 C   0  0  0  0  0  0  0  0  0  0  0  0
   -2.8579   -2.4750    0.0000 C   0  0  0  0  0  0  0  0  0  0  0  0
   -2.1434   -2.8875    0.0000 C   0  0  0  0  0  0  0  0  0  0  0  0
   -1.4289   -2.4750    0.0000 C   0  0  0  0  0  0  0  0  0  0  0  0
   -0.7145   -2.8875    0.0000 N   0  0  0  0  0  0  0  0  0  0  0  0
    0.0000   -2.4750    0.0000 C   0  0  0  0  0  0  0  0  0  0  0  0
    0.7145   -2.8875    0.0000 C   0  0  0  0  0  0  0  0  0  0  0  0
    1.4289   -2.4750    0.0000 C   0  0  0  0  0  0  0  0  0  0  0  0
    2.1434   -2.8875    0.0000 C   0  0  0  0  0  0  0  0  0  0  0  0
    2.1434   -3.7125    0.0000 O   0  0  0  0  0  0  0  0  0  0  0  0
    2.8579   -2.4750    0.0000 O   0  0  0  0  0  0  0  0  0  0  0  0
    3.5724   -2.8875    0.0000 C   0  0  0  0  0  0  0  0  0  0  0  0
    4.2868   -2.4750    0.0000 C   0  0  0  0  0  0  0  0  0  0  0  0
    5.0013   -2.8875    0.0000 C   0  0  0  0  0  0  0  0  0  0  0  0
    5.0013   -3.7125    0.0000 C   0  0  0  0  0  0  0  0  0  0  0  0
    4.2868   -4.1250    0.0000 C   0  0  0  0  0  0  0  0  0  0  0  0
    3.5724   -3.7125    0.0000 C   0  0  0  0  0  0  0  0  0  0  0  0
    5.7158   -4.1250    0.0000 C   0  0  0  0  0  0  0  0  0  0  0  0
    6.4302   -4.5375    0.0000 N   0  0  0  0  0  0  0  0  0  0  0  0
   -0.7145   -3.7125    0.0000 S   0  0  0  0  0  0  0  0  0  0  0  0
   -0.7145   -4.5375    0.0000 C   0  0  0  0  0  0  0  0  0  0  0  0
    0.1105   -3.7125    0.0000 O   0  0  0  0  0  0  0  0  0  0  0  0
   -1.5395   -3.7125    0.0000 O   0  0  0  0  0  0  0  0  0  0  0  0
  1  2  1  0  0  0  0
  2  3  1  0  0  0  0
  3  4  2  0  0  0  0
  4  5  1  0  0  0  0
  5  6  2  0  0  0  0
  6  7  1  0  0  0  0
  7  8  2  0  0  0  0
  3  8  1  0  0  0  0
  8  9  1  0  0  0  0
  9 10  1  0  0  0  0
 10 11  1  0  0  0  0
 11 12  1  0  0  0  0
 12 13  1  0  0  0  0
 13 14  2  0  0  0  0
 13 15  1  0  0  0  0
 15 16  1  0  0  0  0
 16 17  1  0  0  0  0
 17 18  1  0  0  0  0
 18 19  1  0  0  0  0
 19 20  1  0  0  0  0
 20 21  1  0  0  0  0
 16 21  1  0  0  0  0
 19 22  1  0  0  0  0
 22 23  3  0  0  0  0
  9 24  1  0  0  0  0
 24 25  1  0  0  0  0
 24 26  2  0  0  0  0
 24 27  2  0  0  0  0
M  END
> <ID>
CPD_4255

$$$$
CPD_4260
  Mrv1822 09091914012D          

 29 31  0  0  0  0            999 V2000
   -0.6039   -1.6500    0.0000 C   0  0  0  0  0  0  0  0  0  0  0  0
   -1.4289   -1.6500    0.0000 S   0  0  0  0  0  0  0  0  0  0  0  0
   -2.2539   -1.6500    0.0000 O   0  0  0  0  0  0  0  0  0  0  0  0
   -1.4289   -0.8250    0.0000 O   0  0  0  0  0  0  0  0  0  0  0  0
   -1.4289   -2.4750    0.0000 N   0  0  0  0  0  0  0  0  0  0  0  0
   -0.7145   -2.8875    0.0000 C   0  0  0  0  0  0  0  0  0  0  0  0
   -0.7145   -3.7125    0.0000 C   0  0  0  0  0  0  0  0  0  0  0  0
    0.0000   -4.1250    0.0000 C   0  0  0  0  0  0  0  0  0  0  0  0
    0.0000   -4.9500    0.0000 C   0  0  0  0  0  0  0  0  0  0  0  0
   -0.7145   -5.3625    0.0000 C   0  0  0  0  0  0  0  0  0  0  0  0
   -1.4289   -4.9500    0.0000 C   0  0  0  0  0  0  0  0  0  0  0  0
   -1.4289   -4.1250    0.0000 C   0  0  0  0  0  0  0  0  0  0  0  0
   -2.1434   -2.8875    0.0000 C   0  0  0  0  0  0  0  0  0  0  0  0
   -2.1434   -3.7125    0.0000 C   0  0  0  0  0  0  0  0  0  0  0  0
   -2.8579   -4.1250    0.0000 C   0  0  0  0  0  0  0  0  0  0  0  0
   -3.5724   -3.7125    0.0000 C   0  0  0  0  0  0  0  0  0  0  0  0
   -3.5724   -2.8875    0.0000 C   0  0  0  0  0  0  0  0  0  0  0  0
   -2.8579   -2.4750    0.0000 C   0  0  0  0  0  0  0  0  0  0  0  0
   -4.2868   -4.1250    0.0000 C   0  0  0  0  0  0  0  0  0  0  0  0
   -5.0013   -3.7125    0.0000 O   0  0  0  0  0  0  0  0  0  0  0  0
   -4.2868   -4.9500    0.0000 O   0  0  0  0  0  0  0  0  0  0  0  0
   -5.0013   -5.3625    0.0000 C   0  0  0  0  0  0  0  0  0  0  0  0
   -5.0013   -6.1875    0.0000 C   0  0  0  0  0  0  0  0  0  0  0  0
   -5.7158   -6.6000    0.0000 C   0  0  0  0  0  0  0  0  0  0  0  0
   -6.4302   -6.1875    0.0000 C   0  0  0  0  0  0  0  0  0  0  0  0
   -6.4302   -5.3625    0.0000 C   0  0  0  0  0  0  0  0  0  0  0  0
   -5.7158   -4.9500    0.0000 C   0  0  0  0  0  0  0  0  0  0  0  0
   -7.1447   -6.6000    0.0000 C   0  0  0  0  0  0  0  0  0  0  0  0
   -7.8592   -7.0125    0.0000 N   0  0  0  0  0  0  0  0  0  0  0  0
  1  2  1  0  0  0  0
  2  3  2  0  0  0  0
  2  4  2  0  0  0  0
  2  5  1  0  0  0  0
  5  6  1  0  0  0  0
  6  7  1  0  0  0  0
  7  8  2  0  0  0  0
  8  9  1  0  0  0  0
  9 10  2  0  0  0  0
 10 11  1  0  0  0  0
 11 12  2  0  0  0  0
  7 12  1  0  0  0  0
  5 13  1  0  0  0  0
 13 14  2  0  0  0  0
 14 15  1  0  0  0  0
 15 16  2  0  0  0  0
 16 17  1  0  0  0  0
 17 18  2  0  0  0  0
 13 18  1  0  0  0  0
 16 19  1  0  0  0  0
 19 20  2  0  0  0  0
 19 21  1  0  0  0  0
 21 22  1  0  0  0  0
 22 23  1  0  0  0  0
 23 24  1  0  0  0  0
 24 25  1  0  0  0  0
 25 26  1  0  0  0  0
 26 27  1  0  0  0  0
 22 27  1  0  0  0  0
 25 28  1  0  0  0  0
 28 29  3  0  0  0  0
M  END
> <ID>
CPD_4260

$$$$
CPD_4265
  Mrv1822 09091914012D          

 30 32  0  0  0  0            999 V2000
   -2.3645   -4.0954    0.0000 Cl  0  0  0  0  0  0  0  0  0  0  0  0
   -1.9520   -3.3809    0.0000 C   0  0  0  0  0  0  0  0  0  0  0  0
   -2.3645   -2.6664    0.0000 C   0  0  0  0  0  0  0  0  0  0  0  0
   -1.9520   -1.9520    0.0000 C   0  0  0  0  0  0  0  0  0  0  0  0
   -1.1270   -1.9520    0.0000 C   0  0  0  0  0  0  0  0  0  0  0  0
   -0.7145   -2.6664    0.0000 C   0  0  0  0  0  0  0  0  0  0  0  0
   -1.1270   -3.3809    0.0000 C   0  0  0  0  0  0  0  0  0  0  0  0
   -0.7145   -1.2375    0.0000 S   0  0  0  0  0  0  0  0  0  0  0  0
    0.0000   -1.6500    0.0000 O   0  0  0  0  0  0  0  0  0  0  0  0
   -1.4289   -0.8250    0.0000 O   0  0  0  0  0  0  0  0  0  0  0  0
   -0.3020   -0.5230    0.0000 N   0  0  0  0  0  0  0  0  0  0  0  0
    0.5230   -0.5230    0.0000 C   0  0  0  0  0  0  0  0  0  0  0  0
    0.9355   -1.2375    0.0000 C   0  0  0  0  0  0  0  0  0  0  0  0
    0.5230   -1.9520    0.0000 O   0  0  0  0  0  0  0  0  0  0  0  0
    1.7605   -1.2375    0.0000 O   0  0  0  0  0  0  0  0  0  0  0  0
    2.1730   -1.9520    0.0000 C   0  0  0  0  0  0  0  0  0  0  0  0
    2.9980   -1.9520    0.0000 C   0  0  0  0  0  0  0  0  0  0  0  0
    3.4105   -2.6664    0.0000 C   0  0  0  0  0  0  0  0  0  0  0  0
    2.9980   -3.3809    0.0000 C   0  0  0  0  0  0  0  0  0  0  0  0
    2.1730   -3.3809    0.0000 O   0  0  0  0  0  0  0  0  0  0  0  0
    1.7605   -2.6664    0.0000 C   0  0  0  0  0  0  0  0  0  0  0  0
    0.9355   -2.6664    0.0000 O   0  0  0  0  0  0  0  0  0  0  0  0
   -0.7145    0.1914    0.0000 C   0  0  0  0  0  0  0  0  0  0  0  0
   -1.5395    0.1914    0.0000 C   0  0  0  0  0  0  0  0  0  0  0  0
   -1.9520   -0.5230    0.0000 C   0  0  0  0  0  0  0  0  0  0  0  0
   -2.7770   -0.5230    0.0000 C   0  0  0  0  0  0  0  0  0  0  0  0
   -3.1895    0.1914    0.0000 C   0  0  0  0  0  0  0  0  0  0  0  0
   -2.7770    0.9059    0.0000 C   0  0  0  0  0  0  0  0  0  0  0  0
   -1.9520    0.9059    0.0000 C   0  0  0  0  0  0  0  0  0  0  0  0
   -1.5395    1.6204    0.0000 Cl  0  0  0  0  0  0  0  0  0  0  0  0
  1  2  1  0  0  0  0
  2  3  2  0  0  0  0
  3  4  1  0  0  0  0
  4  5  2  0  0  0  0
  5  6  1  0  0  0  0
  6  7  2  0  0  0  0
  2  7  1  0  0  0  0
  5  8  1  0  0  0  0
  8  9  2  0  0  0  0
  8 10  2  0  0  0  0
  8 11  1  0  0  0  0
 11 12  1  0  0  0  0
 12 13  1  0  0  0  0
 13 14  2  0  0  0  0
 13 15  1  0  0  0  0
 15 16  1  0  0  0  0
 16 17  1  0  0  0  0
 17 18  1  0  0  0  0
 18 19  1  0  0  0  0
 19 20  1  0  0  0  0
 20 21  1  0  0  0  0
 16 21  1  0  0  0  0
 21 22  2  0  0  0  0
 11 23  1  0  0  0  0
 23 24  1  0  0  0  0
 24 25  2  0  0  0  0
 25 26  1  0  0  0  0
 26 27  2  0  0  0  0
 27 28  1  0  0  0  0
 28 29  2  0  0  0  0
 24 29  1  0  0  0  0
 29 30  1  0  0  0  0
M  END
> <ID>
CPD_4265

$$$$
CPD_4270
  Mrv1822 09091914012D          

 20 20  0  0  0  0            999 V2000
   -1.4289    4.1250    0.0000 C   0  0  0  0  0  0  0  0  0  0  0  0
   -0.7145    3.7125    0.0000 C   0  0  0  0  0  0  0  0  0  0  0  0
   -1.1270    2.9980    0.0000 C   0  0  0  0  0  0  0  0  0  0  0  0
   -0.3020    4.4270    0.0000 C   0  0  0  0  0  0  0  0  0  0  0  0
    0.0000    3.3000    0.0000 C   0  0  0  0  0  0  0  0  0  0  0  0
    0.7145    3.7125    0.0000 C   0  0  0  0  0  0  0  0  0  0  0  0
    1.4289    3.3000    0.0000 O   0  0  0  0  0  0  0  0  0  0  0  0
    0.0000    2.4750    0.0000 C   0  0  0  0  0  0  0  0  0  0  0  0
    0.7145    2.0625    0.0000 O   0  0  0  0  0  0  0  0  0  0  0  0
    0.7145    1.2375    0.0000 C   0  0  0  0  0  0  0  0  0  0  0  0
    1.4289    0.8250    0.0000 C   0  0  0  0  0  0  0  0  0  0  0  0
    2.1434    1.2375    0.0000 F   0  0  0  0  0  0  0  0  0  0  0  0
    1.4289   -0.0000    0.0000 C   0  0  0  0  0  0  0  0  0  0  0  0
    0.7145   -0.4125    0.0000 C   0  0  0  0  0  0  0  0  0  0  0  0
    0.7145   -1.2375    0.0000 Br  0  0  0  0  0  0  0  0  0  0  0  0
    0.0000    0.0000    0.0000 C   0  0  0  0  0  0  0  0  0  0  0  0
    0.0000    0.8250    0.0000 C   0  0  0  0  0  0  0  0  0  0  0  0
   -0.7145   -0.4125    0.0000 C   0  0  0  0  0  0  0  0  0  0  0  0
   -1.4289    0.0000    0.0000 O   0  0  0  0  0  0  0  0  0  0  0  0
   -0.7145   -1.2375    0.0000 O   0  0  0  0  0  0  0  0  0  0  0  0
  1  2  1  0  0  0  0
  2  3  1  0  0  0  0
  2  4  1  0  0  0  0
  2  5  1  0  0  0  0
  5  6  1  0  0  0  0
  6  7  1  0  0  0  0
  5  8  1  0  0  0  0
  8  9  1  0  0  0  0
  9 10  1  0  0  0  0
 10 11  2  0  0  0  0
 11 12  1  0  0  0  0
 11 13  1  0  0  0  0
 13 14  2  0  0  0  0
 14 15  1  0  0  0  0
 14 16  1  0  0  0  0
 16 17  2  0  0  0  0
 10 17  1  0  0  0  0
 16 18  1  0  0  0  0
 18 19  1  0  0  0  0
 18 20  2  0  0  0  0
M  END
> <ID>
CPD_4270

$$$$
CPD_4275
  Mrv1822 09091914012D          

 28 29  0  0  0  0            999 V2000
    0.0000    1.6500    0.0000 C   0  0  0  0  0  0  0  0  0  0  0  0
    0.7145    1.2375    0.0000 C   0  0  0  0  0  0  0  0  0  0  0  0
    0.3020    0.5230    0.0000 C   0  0  0  0  0  0  0  0  0  0  0  0
    1.1270    1.9520    0.0000 C   0  0  0  0  0  0  0  0  0  0  0  0
    1.4289    0.8250    0.0000 C   0  0  0  0  0  0  0  0  0  0  0  0
    2.1434    1.2375    0.0000 C   0  0  0  0  0  0  0  0  0  0  0  0
    2.8579    0.8250    0.0000 O   0  0  0  0  0  0  0  0  0  0  0  0
    1.4289    0.0000    0.0000 C   0  0  0  0  0  0  0  0  0  0  0  0
    2.1434   -0.4125    0.0000 O   0  0  0  0  0  0  0  0  0  0  0  0
    2.1434   -1.2375    0.0000 C   0  0  0  0  0  0  0  0  0  0  0  0
    1.4289   -1.6500    0.0000 O   0  0  0  0  0  0  0  0  0  0  0  0
    2.8579   -1.6500    0.0000 C   0  0  0  0  0  0  0  0  0  0  0  0
    2.8579   -2.4750    0.0000 C   0  0  0  0  0  0  0  0  0  0  0  0
    3.5724   -2.8875    0.0000 N   0  0  0  0  0  0  0  0  0  0  0  0
    4.2868   -2.4750    0.0000 C   0  0  0  0  0  0  0  0  0  0  0  0
    5.0013   -2.8875    0.0000 C   0  0  0  0  0  0  0  0  0  0  0  0
    5.7158   -2.4750    0.0000 C   0  0  0  0  0  0  0  0  0  0  0  0
    6.4302   -2.8875    0.0000 C   0  0  0  0  0  0  0  0  0  0  0  0
    7.1447   -2.4750    0.0000 C   0  0  0  0  0  0  0  0  0  0  0  0
    7.8592   -2.8875    0.0000 C   0  0  0  0  0  0  0  0  0  0  0  0
    7.8592   -3.7125    0.0000 C   0  0  0  0  0  0  0  0  0  0  0  0
    7.1447   -4.1250    0.0000 C   0  0  0  0  0  0  0  0  0  0  0  0
    6.4302   -3.7125    0.0000 C   0  0  0  0  0  0  0  0  0  0  0  0
    3.5724   -3.7125    0.0000 C   0  0  0  0  0  0  0  0  0  0  0  0
    2.8579   -4.1250    0.0000 C   0  0  0  0  0  0  0  0  0  0  0  0
    2.1434   -3.7125    0.0000 N   0  0  0  0  0  0  0  0  0  0  0  0
    2.1434   -2.8875    0.0000 C   0  0  0  0  0  0  0  0  0  0  0  0
    1.4289   -2.4750    0.0000 O   0  0  0  0  0  0  0  0  0  0  0  0
  1  2  1  0  0  0  0
  2  3  1  0  0  0  0
  2  4  1  0  0  0  0
  2  5  1  0  0  0  0
  5  6  1  0  0  0  0
  6  7  1  0  0  0  0
  5  8  1  0  0  0  0
  8  9  1  0  0  0  0
  9 10  1  0  0  0  0
 10 11  2  0  0  0  0
 10 12  1  0  0  0  0
 12 13  1  0  0  0  0
 13 14  1  0  0  0  0
 14 15  1  0  0  0  0
 15 16  1  0  0  0  0
 16 17  1  0  0  0  0
 17 18  1  0  0  0  0
 18 19  2  0  0  0  0
 19 20  1  0  0  0  0
 20 21  2  0  0  0  0
 21 22  1  0  0  0  0
 22 23  2  0  0  0  0
 18 23  1  0  0  0  0
 14 24  1  0  0  0  0
 24 25  1  0  0  0  0
 25 26  1  0  0  0  0
 26 27  1  0  0  0  0
 13 27  1  0  0  0  0
 27 28  2  0  0  0  0
M  END
> <ID>
CPD_4275

$$$$
CPD_4280
  Mrv1822 09091914012D          

 21 22  0  0  0  0            999 V2000
   -3.6902    4.3446    0.0000 C   0  0  0  0  0  0  0  0  0  0  0  0
   -2.8697    4.4308    0.0000 C   0  0  0  0  0  0  0  0  0  0  0  0
   -2.5342    5.1845    0.0000 C   0  0  0  0  0  0  0  0  0  0  0  0
   -1.7137    5.2707    0.0000 C   0  0  0  0  0  0  0  0  0  0  0  0
   -1.2288    4.6033    0.0000 C   0  0  0  0  0  0  0  0  0  0  0  0
   -1.5643    3.8496    0.0000 C   0  0  0  0  0  0  0  0  0  0  0  0
   -2.3848    3.7634    0.0000 C   0  0  0  0  0  0  0  0  0  0  0  0
   -0.4083    4.6895    0.0000 C   0  0  0  0  0  0  0  0  0  0  0  0
    0.0042    5.4040    0.0000 C   0  0  0  0  0  0  0  0  0  0  0  0
    0.8112    5.2325    0.0000 C   0  0  0  0  0  0  0  0  0  0  0  0
    0.8974    4.4120    0.0000 C   0  0  0  0  0  0  0  0  0  0  0  0
    0.1437    4.0764    0.0000 O   0  0  0  0  0  0  0  0  0  0  0  0
    1.6119    3.9995    0.0000 C   0  0  0  0  0  0  0  0  0  0  0  0
    1.6119    3.1745    0.0000 O   0  0  0  0  0  0  0  0  0  0  0  0
    2.3264    4.4120    0.0000 O   0  0  0  0  0  0  0  0  0  0  0  0
    3.0408    3.9995    0.0000 C   0  0  0  0  0  0  0  0  0  0  0  0
    3.7553    4.4120    0.0000 C   0  0  0  0  0  0  0  0  0  0  0  0
    4.4698    3.9995    0.0000 C   0  0  0  0  0  0  0  0  0  0  0  0
    5.1842    4.4120    0.0000 C   0  0  0  0  0  0  0  0  0  0  0  0
    5.8987    3.9995    0.0000 C   0  0  0  0  0  0  0  0  0  0  0  0
    6.6132    4.4120    0.0000 O   0  0  0  0  0  0  0  0  0  0  0  0
  1  2  1  0  0  0  0
  2  3  2  0  0  0  0
  3  4  1  0  0  0  0
  4  5  2  0  0  0  0
  5  6  1  0  0  0  0
  6  7  2  0  0  0  0
  2  7  1  0  0  0  0
  5  8  1  0  0  0  0
  8  9  2  0  0  0  0
  9 10  1  0  0  0  0
 10 11  2  0  0  0  0
 11 12  1  0  0  0  0
  8 12  1  0  0  0  0
 11 13  1  0  0  0  0
 13 14  2  0  0  0  0
 13 15  1  0  0  0  0
 15 16  1  0  0  0  0
 16 17  1  0  0  0  0
 17 18  1  0  0  0  0
 18 19  1  0  0  0  0
 19 20  1  0  0  0  0
 20 21  1  0  0  0  0
M  END
> <ID>
CPD_4280

$$$$
CPD_4285
  Mrv1822 09091914012D          

 24 24  0  0  1  0            999 V2000
    5.2883   -8.0228    0.0000 C   0  0  0  0  0  0  0  0  0  0  0  0
    5.5583   -7.2432    0.0000 C   0  0  0  0  0  0  0  0  0  0  0  0
    4.7788   -6.9732    0.0000 C   0  0  0  0  0  0  0  0  0  0  0  0
    6.3379   -7.5133    0.0000 C   0  0  0  0  0  0  0  0  0  0  0  0
    5.8284   -6.4637    0.0000 O   0  0  0  0  0  0  0  0  0  0  0  0
    5.2883   -5.8400    0.0000 C   0  0  0  0  0  0  0  0  0  0  0  0
    4.4782   -5.9959    0.0000 O   0  0  0  0  0  0  0  0  0  0  0  0
    5.5583   -5.0605    0.0000 N   0  0  0  0  0  0  0  0  0  0  0  0
    5.0182   -4.4368    0.0000 C   0  0  0  0  0  0  0  0  0  0  0  0
    4.2081   -4.5927    0.0000 C   0  0  0  0  0  0  0  0  0  0  0  0
    3.6680   -3.9691    0.0000 C   0  0  0  0  0  0  0  0  0  0  0  0
    2.8579   -4.1250    0.0000 C   0  0  0  0  0  0  0  0  0  0  0  0
    2.3178   -3.5014    0.0000 C   0  0  0  0  0  0  0  0  0  0  0  0
    1.5077   -3.6573    0.0000 O   0  0  0  0  0  0  0  0  0  0  0  0
    6.3685   -4.9046    0.0000 C   0  0  2  0  0  0  0  0  0  0  0  0
    6.9086   -5.5282    0.0000 C   0  0  0  0  0  0  0  0  0  0  0  0
    7.7187   -5.3723    0.0000 C   0  0  0  0  0  0  0  0  0  0  0  0
    8.2588   -5.9959    0.0000 C   0  0  0  0  0  0  0  0  0  0  0  0
    7.9887   -6.7755    0.0000 O   0  0  0  0  0  0  0  0  0  0  0  0
    7.1786   -6.9314    0.0000 C   0  0  0  0  0  0  0  0  0  0  0  0
    6.6385   -6.3077    0.0000 C   0  0  0  0  0  0  0  0  0  0  0  0
    6.6385   -4.1250    0.0000 C   0  0  0  0  0  0  0  0  0  0  0  0
    6.0984   -3.5014    0.0000 O   0  0  0  0  0  0  0  0  0  0  0  0
    7.4486   -3.9691    0.0000 O   0  0  0  0  0  0  0  0  0  0  0  0
  1  2  1  0  0  0  0
  2  3  1  0  0  0  0
  2  4  1  0  0  0  0
  2  5  1  0  0  0  0
  5  6  1  0  0  0  0
  6  7  2  0  0  0  0
  6  8  1  0  0  0  0
  8  9  1  0  0  0  0
  9 10  1  0  0  0  0
 10 11  1  0  0  0  0
 11 12  1  0  0  0  0
 12 13  1  0  0  0  0
 13 14  1  0  0  0  0
 15  8  1  1  0  0  0
 15 16  1  0  0  0  0
 16 17  1  0  0  0  0
 17 18  1  0  0  0  0
 18 19  1  0  0  0  0
 19 20  1  0  0  0  0
 20 21  1  0  0  0  0
 16 21  1  0  0  0  0
 15 22  1  0  0  0  0
 22 23  1  0  0  0  0
 22 24  2  0  0  0  0
M  END
> <ID>
CPD_4285

$$$$
CPD_4290
  Mrv1822 09091914012D          

 17 17  0  0  0  0            999 V2000
    2.8579   -6.6000    0.0000 O   0  0  0  0  0  0  0  0  0  0  0  0
    3.5724   -6.1875    0.0000 C   0  0  0  0  0  0  0  0  0  0  0  0
    4.2868   -6.6000    0.0000 C   0  0  0  0  0  0  0  0  0  0  0  0
    5.0013   -6.1875    0.0000 C   0  0  0  0  0  0  0  0  0  0  0  0
    5.7158   -6.6000    0.0000 C   0  0  0  0  0  0  0  0  0  0  0  0
    6.4302   -6.1875    0.0000 C   0  0  0  0  0  0  0  0  0  0  0  0
    7.1447   -6.6000    0.0000 N   0  0  0  0  0  0  0  0  0  0  0  0
    7.8592   -6.1875    0.0000 C   0  0  0  0  0  0  0  0  0  0  0  0
    8.5737   -6.6000    0.0000 C   0  0  0  0  0  0  0  0  0  0  0  0
    9.2881   -6.1875    0.0000 C   0  0  0  0  0  0  0  0  0  0  0  0
   10.0026   -6.6000    0.0000 C   0  0  0  0  0  0  0  0  0  0  0  0
   10.7171   -6.1875    0.0000 C   0  0  0  0  0  0  0  0  0  0  0  0
   11.4315   -6.6000    0.0000 C   0  0  0  0  0  0  0  0  0  0  0  0
   11.4315   -7.4250    0.0000 C   0  0  0  0  0  0  0  0  0  0  0  0
   12.1460   -7.8375    0.0000 Cl  0  0  0  0  0  0  0  0  0  0  0  0
   10.7171   -7.8375    0.0000 C   0  0  0  0  0  0  0  0  0  0  0  0
   10.0026   -7.4250    0.0000 C   0  0  0  0  0  0  0  0  0  0  0  0
  1  2  1  0  0  0  0
  2  3  1  0  0  0  0
  3  4  1  0  0  0  0
  4  5  1  0  0  0  0
  5  6  1  0  0  0  0
  6  7  1  0  0  0  0
  7  8  1  0  0  0  0
  8  9  1  0  0  0  0
  9 10  1  0  0  0  0
 10 11  1  0  0  0  0
 11 12  2  0  0  0  0
 12 13  1  0  0  0  0
 13 14  2  0  0  0  0
 14 15  1  0  0  0  0
 14 16  1  0  0  0  0
 16 17  2  0  0  0  0
 11 17  1  0  0  0  0
M  END
> <ID>
CPD_4290

$$$$
CPD_4295
  Mrv1822 09091914012D          

 21 22  0  0  0  0            999 V2000
    2.7512   -1.7116    0.0000 C   0  0  0  0  0  0  0  0  0  0  0  0
    2.7512   -2.5366    0.0000 N   0  0  0  0  0  0  0  0  0  0  0  0
    3.4186   -3.0215    0.0000 C   0  0  0  0  0  0  0  0  0  0  0  0
    3.1637   -3.8062    0.0000 C   0  0  0  0  0  0  0  0  0  0  0  0
    2.3387   -3.8062    0.0000 C   0  0  0  0  0  0  0  0  0  0  0  0
    2.0837   -3.0215    0.0000 C   0  0  0  0  0  0  0  0  0  0  0  0
    1.2991   -2.7666    0.0000 C   0  0  0  0  0  0  0  0  0  0  0  0
    0.6860   -3.3186    0.0000 O   0  0  0  0  0  0  0  0  0  0  0  0
    1.1276   -1.9596    0.0000 N   0  0  0  0  0  0  0  0  0  0  0  0
    0.3430   -1.7047    0.0000 C   0  0  0  0  0  0  0  0  0  0  0  0
    0.1714   -0.8977    0.0000 C   0  0  0  0  0  0  0  0  0  0  0  0
   -0.6132   -0.6428    0.0000 C   0  0  0  0  0  0  0  0  0  0  0  0
   -0.7847    0.1642    0.0000 C   0  0  0  0  0  0  0  0  0  0  0  0
   -1.5693    0.4191    0.0000 F   0  0  0  0  0  0  0  0  0  0  0  0
   -0.1716    0.7162    0.0000 C   0  0  0  0  0  0  0  0  0  0  0  0
   -0.3431    1.5232    0.0000 C   0  0  0  0  0  0  0  0  0  0  0  0
    0.6130    0.4613    0.0000 N   0  0  0  0  0  0  0  0  0  0  0  0
    0.7845   -0.3457    0.0000 C   0  0  0  0  0  0  0  0  0  0  0  0
    3.6486   -4.4736    0.0000 C   0  0  0  0  0  0  0  0  0  0  0  0
    4.4691   -4.3874    0.0000 C   0  0  0  0  0  0  0  0  0  0  0  0
    3.3130   -5.2273    0.0000 O   0  0  0  0  0  0  0  0  0  0  0  0
  1  2  1  0  0  0  0
  2  3  1  0  0  0  0
  3  4  2  0  0  0  0
  4  5  1  0  0  0  0
  5  6  2  0  0  0  0
  2  6  1  0  0  0  0
  6  7  1  0  0  0  0
  7  8  2  0  0  0  0
  7  9  1  0  0  0  0
  9 10  1  0  0  0  0
 10 11  1  0  0  0  0
 11 12  2  0  0  0  0
 12 13  1  0  0  0  0
 13 14  1  0  0  0  0
 13 15  2  0  0  0  0
 15 16  1  0  0  0  0
 15 17  1  0  0  0  0
 17 18  2  0  0  0  0
 11 18  1  0  0  0  0
  4 19  1  0  0  0  0
 19 20  1  0  0  0  0
 19 21  2  0  0  0  0
M  END
> <ID>
CPD_4295

$$$$
CPD_4300
  Mrv1822 09091914012D          

 23 24  0  0  0  0            999 V2000
   -2.8579   -2.4750    0.0000 C   0  0  0  0  0  0  0  0  0  0  0  0
   -2.1434   -2.8875    0.0000 O   0  0  0  0  0  0  0  0  0  0  0  0
   -1.4289   -2.4750    0.0000 C   0  0  0  0  0  0  0  0  0  0  0  0
   -1.4289   -1.6500    0.0000 C   0  0  0  0  0  0  0  0  0  0  0  0
   -0.7145   -1.2375    0.0000 C   0  0  0  0  0  0  0  0  0  0  0  0
    0.0000   -1.6500    0.0000 C   0  0  0  0  0  0  0  0  0  0  0  0
    0.7145   -1.2375    0.0000 F   0  0  0  0  0  0  0  0  0  0  0  0
    0.0000   -2.4750    0.0000 C   0  0  0  0  0  0  0  0  0  0  0  0
    0.7145   -2.8875    0.0000 C   0  0  0  0  0  0  0  0  0  0  0  0
    1.4289   -2.4750    0.0000 C   0  0  0  0  0  0  0  0  0  0  0  0
    1.4289   -1.6500    0.0000 O   0  0  0  0  0  0  0  0  0  0  0  0
    2.1434   -2.8875    0.0000 O   0  0  0  0  0  0  0  0  0  0  0  0
    2.8579   -2.4750    0.0000 C   0  0  0  0  0  0  0  0  0  0  0  0
    3.5724   -2.8875    0.0000 C   0  0  0  0  0  0  0  0  0  0  0  0
    4.2868   -2.4750    0.0000 C   0  0  0  0  0  0  0  0  0  0  0  0
    5.0013   -2.8875    0.0000 C   0  0  0  0  0  0  0  0  0  0  0  0
    5.7158   -2.4750    0.0000 F   0  0  0  0  0  0  0  0  0  0  0  0
    5.0013   -3.7125    0.0000 C   0  0  0  0  0  0  0  0  0  0  0  0
    5.7158   -4.1250    0.0000 C   0  0  0  0  0  0  0  0  0  0  0  0
    4.2868   -4.1250    0.0000 N   0  0  0  0  0  0  0  0  0  0  0  0
    3.5724   -3.7125    0.0000 C   0  0  0  0  0  0  0  0  0  0  0  0
   -0.7145   -2.8875    0.0000 C   0  0  0  0  0  0  0  0  0  0  0  0
   -0.7145   -3.7125    0.0000 F   0  0  0  0  0  0  0  0  0  0  0  0
  1  2  1  0  0  0  0
  2  3  1  0  0  0  0
  3  4  2  0  0  0  0
  4  5  1  0  0  0  0
  5  6  2  0  0  0  0
  6  7  1  0  0  0  0
  6  8  1  0  0  0  0
  8  9  1  0  0  0  0
  9 10  1  0  0  0  0
 10 11  2  0  0  0  0
 10 12  1  0  0  0  0
 12 13  1  0  0  0  0
 13 14  1  0  0  0  0
 14 15  2  0  0  0  0
 15 16  1  0  0  0  0
 16 17  1  0  0  0  0
 16 18  2  0  0  0  0
 18 19  1  0  0  0  0
 18 20  1  0  0  0  0
 20 21  2  0  0  0  0
 14 21  1  0  0  0  0
  8 22  2  0  0  0  0
  3 22  1  0  0  0  0
 22 23  1  0  0  0  0
M  END
> <ID>
CPD_4300

$$$$
CPD_4305
  Mrv1822 09091914012D          

 20 21  0  0  0  0            999 V2000
    1.4289   -1.6500    0.0000 C   0  0  0  0  0  0  0  0  0  0  0  0
    1.4289   -2.4750    0.0000 C   0  0  0  0  0  0  0  0  0  0  0  0
    0.7145   -2.8875    0.0000 C   0  0  0  0  0  0  0  0  0  0  0  0
    0.0000   -2.4750    0.0000 C   0  0  0  0  0  0  0  0  0  0  0  0
   -0.7145   -2.8875    0.0000 N   0  0  0  0  0  0  0  0  0  0  0  0
   -1.4289   -2.4750    0.0000 C   0  0  0  0  0  0  0  0  0  0  0  0
   -1.4289   -1.6500    0.0000 C   0  0  0  0  0  0  0  0  0  0  0  0
   -0.7145   -1.2375    0.0000 N   0  0  0  0  0  0  0  0  0  0  0  0
    0.0000   -1.6500    0.0000 C   0  0  0  0  0  0  0  0  0  0  0  0
    2.1434   -2.8875    0.0000 N   0  0  0  0  0  0  0  0  0  0  0  0
    2.1434   -3.7125    0.0000 C   0  0  0  0  0  0  0  0  0  0  0  0
    2.8579   -2.4750    0.0000 C   0  0  0  0  0  0  0  0  0  0  0  0
    3.5724   -2.8875    0.0000 C   0  0  0  0  0  0  0  0  0  0  0  0
    4.2868   -2.4750    0.0000 C   0  0  0  0  0  0  0  0  0  0  0  0
    5.0013   -2.8875    0.0000 C   0  0  0  0  0  0  0  0  0  0  0  0
    5.7158   -2.4750    0.0000 F   0  0  0  0  0  0  0  0  0  0  0  0
    5.0013   -3.7125    0.0000 C   0  0  0  0  0  0  0  0  0  0  0  0
    5.7158   -4.1250    0.0000 C   0  0  0  0  0  0  0  0  0  0  0  0
    4.2868   -4.1250    0.0000 N   0  0  0  0  0  0  0  0  0  0  0  0
    3.5724   -3.7125    0.0000 C   0  0  0  0  0  0  0  0  0  0  0  0
  1  2  1  0  0  0  0
  2  3  1  0  0  0  0
  3  4  1  0  0  0  0
  4  5  2  0  0  0  0
  5  6  1  0  0  0  0
  6  7  2  0  0  0  0
  7  8  1  0  0  0  0
  8  9  2  0  0  0  0
  4  9  1  0  0  0  0
  2 10  1  0  0  0  0
 10 11  1  0  0  0  0
 10 12  1  0  0  0  0
 12 13  1  0  0  0  0
 13 14  2  0  0  0  0
 14 15  1  0  0  0  0
 15 16  1  0  0  0  0
 15 17  2  0  0  0  0
 17 18  1  0  0  0  0
 17 19  1  0  0  0  0
 19 20  2  0  0  0  0
 13 20  1  0  0  0  0
M  END
> <ID>
CPD_4305

$$$$
CPD_4310
  Mrv1822 09091914012D          

 31 36  0  0  0  0            999 V2000
    4.0025   -1.5983    0.0000 C   0  0  0  0  0  0  0  0  0  0  0  0
    4.2575   -0.8137    0.0000 O   0  0  0  0  0  0  0  0  0  0  0  0
    3.7054   -0.2006    0.0000 C   0  0  0  0  0  0  0  0  0  0  0  0
    2.8985   -0.3721    0.0000 C   0  0  0  0  0  0  0  0  0  0  0  0
    2.3464    0.2410    0.0000 C   0  0  0  0  0  0  0  0  0  0  0  0
    2.6014    1.0256    0.0000 C   0  0  0  0  0  0  0  0  0  0  0  0
    3.4084    1.1971    0.0000 C   0  0  0  0  0  0  0  0  0  0  0  0
    3.9604    0.5840    0.0000 C   0  0  0  0  0  0  0  0  0  0  0  0
    1.9339    1.5105    0.0000 N   0  0  0  0  0  0  0  0  0  0  0  0
    1.2665    1.0256    0.0000 C   0  0  0  0  0  0  0  0  0  0  0  0
    1.5214    0.2410    0.0000 C   0  0  0  0  0  0  0  0  0  0  0  0
    0.9694   -0.3721    0.0000 N   0  0  0  0  0  0  0  0  0  0  0  0
    0.1624   -0.2006    0.0000 C   0  0  0  0  0  0  0  0  0  0  0  0
   -0.0925    0.5840    0.0000 N   0  0  0  0  0  0  0  0  0  0  0  0
    0.4595    1.1971    0.0000 C   0  0  0  0  0  0  0  0  0  0  0  0
    0.2046    1.9817    0.0000 N   0  0  0  0  0  0  0  0  0  0  0  0
   -0.6024    2.1533    0.0000 C   0  0  0  0  0  0  0  0  0  0  0  0
   -0.8573    2.9379    0.0000 C   0  0  0  0  0  0  0  0  0  0  0  0
   -0.3053    3.5510    0.0000 N   0  0  0  0  0  0  0  0  0  0  0  0
    0.5017    3.3795    0.0000 C   0  0  0  0  0  0  0  0  0  0  0  0
    0.7566    2.5948    0.0000 C   0  0  0  0  0  0  0  0  0  0  0  0
    1.9339    2.3355    0.0000 C   0  0  0  0  0  0  0  0  0  0  0  0
    2.6484    2.7480    0.0000 C   0  0  0  0  0  0  0  0  0  0  0  0
    3.3629    2.3355    0.0000 C   0  0  0  0  0  0  0  0  0  0  0  0
    4.1879    2.3355    0.0000 C   0  0  0  0  0  0  0  0  0  0  0  0
    3.7754    1.6210    0.0000 C   0  0  0  0  0  0  0  0  0  0  0  0
    2.6484    3.5730    0.0000 C   0  0  0  0  0  0  0  0  0  0  0  0
    3.3629    3.9855    0.0000 Cl  0  0  0  0  0  0  0  0  0  0  0  0
    1.9339    3.9855    0.0000 C   0  0  0  0  0  0  0  0  0  0  0  0
    1.2195    3.5730    0.0000 C   0  0  0  0  0  0  0  0  0  0  0  0
    1.2195    2.7480    0.0000 C   0  0  0  0  0  0  0  0  0  0  0  0
  1  2  1  0  0  0  0
  2  3  1  0  0  0  0
  3  4  2  0  0  0  0
  4  5  1  0  0  0  0
  5  6  2  0  0  0  0
  6  7  1  0  0  0  0
  7  8  2  0  0  0  0
  3  8  1  0  0  0  0
  6  9  1  0  0  0  0
  9 10  1  0  0  0  0
 10 11  2  0  0  0  0
  5 11  1  0  0  0  0
 11 12  1  0  0  0  0
 12 13  2  0  0  0  0
 13 14  1  0  0  0  0
 14 15  2  0  0  0  0
 10 15  1  0  0  0  0
 15 16  1  0  0  0  0
 16 17  1  0  0  0  0
 17 18  1  0  0  0  0
 18 19  1  0  0  0  0
 19 20  1  0  0  0  0
 20 21  1  0  0  0  0
 16 21  1  0  0  0  0
  9 22  1  0  0  0  0
 22 23  2  0  0  0  0
 23 24  1  0  0  0  0
 24 25  1  0  0  0  0
 25 26  1  0  0  0  0
 24 26  1  0  0  0  0
 23 27  1  0  0  0  0
 27 28  1  0  0  0  0
 27 29  2  0  0  0  0
 29 30  1  0  0  0  0
 30 31  2  0  0  0  0
 22 31  1  0  0  0  0
M  END
> <ID>
CPD_4310

$$$$
CPD_4315
  Mrv1822 09091914012D          

 28 32  0  0  0  0            999 V2000
   -1.5025   -0.4721    0.0000 Cl  0  0  0  0  0  0  0  0  0  0  0  0
   -1.7575    0.3126    0.0000 C   0  0  0  0  0  0  0  0  0  0  0  0
   -2.5644    0.4841    0.0000 C   0  0  0  0  0  0  0  0  0  0  0  0
   -2.8194    1.2687    0.0000 C   0  0  0  0  0  0  0  0  0  0  0  0
   -2.2673    1.8818    0.0000 C   0  0  0  0  0  0  0  0  0  0  0  0
   -1.4604    1.7103    0.0000 C   0  0  0  0  0  0  0  0  0  0  0  0
   -1.2054    0.9256    0.0000 C   0  0  0  0  0  0  0  0  0  0  0  0
   -0.3984    0.7541    0.0000 C   0  0  0  0  0  0  0  0  0  0  0  0
   -0.1435   -0.0305    0.0000 N   0  0  0  0  0  0  0  0  0  0  0  0
   -0.6284   -0.6979    0.0000 N   0  0  0  0  0  0  0  0  0  0  0  0
   -0.1435   -1.3654    0.0000 N   0  0  0  0  0  0  0  0  0  0  0  0
    0.6411   -1.1104    0.0000 C   0  0  0  0  0  0  0  0  0  0  0  0
    0.6411   -0.2854    0.0000 C   0  0  0  0  0  0  0  0  0  0  0  0
    1.3556    0.1271    0.0000 N   0  0  0  0  0  0  0  0  0  0  0  0
    2.0701   -0.2854    0.0000 C   0  0  0  0  0  0  0  0  0  0  0  0
    2.0701   -1.1104    0.0000 N   0  0  0  0  0  0  0  0  0  0  0  0
    1.3556   -1.5229    0.0000 C   0  0  0  0  0  0  0  0  0  0  0  0
    1.3556   -2.3479    0.0000 O   0  0  0  0  0  0  0  0  0  0  0  0
    2.7845   -1.5229    0.0000 C   0  0  0  0  0  0  0  0  0  0  0  0
    3.4990   -1.1104    0.0000 C   0  0  0  0  0  0  0  0  0  0  0  0
    3.4990   -0.2854    0.0000 C   0  0  0  0  0  0  0  0  0  0  0  0
    3.0865    0.4290    0.0000 C   0  0  0  0  0  0  0  0  0  0  0  0
    3.9115    0.4290    0.0000 C   0  0  0  0  0  0  0  0  0  0  0  0
    4.2135   -1.5229    0.0000 C   0  0  0  0  0  0  0  0  0  0  0  0
    4.9279   -1.1104    0.0000 Cl  0  0  0  0  0  0  0  0  0  0  0  0
    4.2135   -2.3479    0.0000 C   0  0  0  0  0  0  0  0  0  0  0  0
    3.4990   -2.7604    0.0000 C   0  0  0  0  0  0  0  0  0  0  0  0
    2.7845   -2.3479    0.0000 C   0  0  0  0  0  0  0  0  0  0  0  0
  1  2  1  0  0  0  0
  2  3  2  0  0  0  0
  3  4  1  0  0  0  0
  4  5  2  0  0  0  0
  5  6  1  0  0  0  0
  6  7  2  0  0  0  0
  2  7  1  0  0  0  0
  7  8  1  0  0  0  0
  8  9  1  0  0  0  0
  9 10  1  0  0  0  0
 10 11  2  0  0  0  0
 11 12  1  0  0  0  0
 12 13  2  0  0  0  0
  9 13  1  0  0  0  0
 13 14  1  0  0  0  0
 14 15  2  0  0  0  0
 15 16  1  0  0  0  0
 16 17  1  0  0  0  0
 12 17  1  0  0  0  0
 17 18  2  0  0  0  0
 16 19  1  0  0  0  0
 19 20  2  0  0  0  0
 20 21  1  0  0  0  0
 21 22  1  0  0  0  0
 22 23  1  0  0  0  0
 21 23  1  0  0  0  0
 20 24  1  0  0  0  0
 24 25  1  0  0  0  0
 24 26  2  0  0  0  0
 26 27  1  0  0  0  0
 27 28  2  0  0  0  0
 19 28  1  0  0  0  0
M  END
> <ID>
CPD_4315

$$$$
CPD_4320
  Mrv1822 09091914012D          

 28 31  0  0  0  0            999 V2000
    3.8743    1.8882    0.0000 C   0  0  0  0  0  0  0  0  0  0  0  0
    3.1599    2.3007    0.0000 C   0  0  0  0  0  0  0  0  0  0  0  0
    3.1599    3.1257    0.0000 C   0  0  0  0  0  0  0  0  0  0  0  0
    2.4454    3.5382    0.0000 C   0  0  0  0  0  0  0  0  0  0  0  0
    2.4454    4.3632    0.0000 O   0  0  0  0  0  0  0  0  0  0  0  0
    1.7309    3.1257    0.0000 N   0  0  0  0  0  0  0  0  0  0  0  0
    1.7309    2.3007    0.0000 C   0  0  0  0  0  0  0  0  0  0  0  0
    1.0164    1.8882    0.0000 N   0  0  0  0  0  0  0  0  0  0  0  0
    1.0164    1.0632    0.0000 C   0  0  0  0  0  0  0  0  0  0  0  0
    1.7309    0.6507    0.0000 N   0  0  0  0  0  0  0  0  0  0  0  0
    1.7309   -0.1743    0.0000 C   0  0  0  0  0  0  0  0  0  0  0  0
    2.4454   -0.5868    0.0000 C   0  0  0  0  0  0  0  0  0  0  0  0
    2.4454   -1.4118    0.0000 C   0  0  0  0  0  0  0  0  0  0  0  0
    1.7309   -1.8243    0.0000 C   0  0  0  0  0  0  0  0  0  0  0  0
    1.0164   -1.4118    0.0000 C   0  0  0  0  0  0  0  0  0  0  0  0
    1.0164   -0.5868    0.0000 C   0  0  0  0  0  0  0  0  0  0  0  0
    0.3020    0.6507    0.0000 N   0  0  0  0  0  0  0  0  0  0  0  0
   -0.4125    1.0632    0.0000 C   0  0  0  0  0  0  0  0  0  0  0  0
   -1.1270    0.6507    0.0000 C   0  0  0  0  0  0  0  0  0  0  0  0
   -1.1270   -0.1743    0.0000 C   0  0  0  0  0  0  0  0  0  0  0  0
   -0.7145   -0.8888    0.0000 C   0  0  0  0  0  0  0  0  0  0  0  0
   -1.5395   -0.8888    0.0000 C   0  0  0  0  0  0  0  0  0  0  0  0
   -1.8414    1.0632    0.0000 C   0  0  0  0  0  0  0  0  0  0  0  0
   -2.5559    0.6507    0.0000 Cl  0  0  0  0  0  0  0  0  0  0  0  0
   -1.8414    1.8882    0.0000 C   0  0  0  0  0  0  0  0  0  0  0  0
   -1.1270    2.3007    0.0000 C   0  0  0  0  0  0  0  0  0  0  0  0
   -0.4125    1.8882    0.0000 C   0  0  0  0  0  0  0  0  0  0  0  0
    2.4454    1.8882    0.0000 N   0  0  0  0  0  0  0  0  0  0  0  0
  1  2  1  0  0  0  0
  2  3  2  0  0  0  0
  3  4  1  0  0  0  0
  4  5  2  0  0  0  0
  4  6  1  0  0  0  0
  6  7  2  0  0  0  0
  7  8  1  0  0  0  0
  8  9  1  0  0  0  0
  9 10  1  0  0  0  0
 10 11  1  0  0  0  0
 11 12  1  0  0  0  0
 12 13  1  0  0  0  0
 13 14  1  0  0  0  0
 14 15  1  0  0  0  0
 15 16  1  0  0  0  0
 11 16  1  0  0  0  0
  9 17  2  0  0  0  0
 17 18  1  4  0  0  0
 18 19  2  0  0  0  0
 19 20  1  0  0  0  0
 20 21  1  0  0  0  0
 21 22  1  0  0  0  0
 20 22  1  0  0  0  0
 19 23  1  0  0  0  0
 23 24  1  0  0  0  0
 23 25  2  0  0  0  0
 25 26  1  0  0  0  0
 26 27  2  0  0  0  0
 18 27  1  0  0  0  0
  7 28  1  0  0  0  0
  2 28  1  0  0  0  0
M  END
> <ID>
CPD_4320

$$$$
CPD_4325
  Mrv1822 09091914012D          

 32 36  0  0  0  0            999 V2000
   -1.4289    0.0000    0.0000 C   0  0  0  0  0  0  0  0  0  0  0  0
   -0.7145   -0.4125    0.0000 N   0  0  0  0  0  0  0  0  0  0  0  0
   -0.7145   -1.2375    0.0000 C   0  0  0  0  0  0  0  0  0  0  0  0
   -1.4289   -1.6500    0.0000 C   0  0  0  0  0  0  0  0  0  0  0  0
   -2.1434   -1.2375    0.0000 O   0  0  0  0  0  0  0  0  0  0  0  0
   -1.4289   -2.4750    0.0000 N   0  0  0  0  0  0  0  0  0  0  0  0
   -0.7145   -2.8875    0.0000 C   0  0  0  0  0  0  0  0  0  0  0  0
   -0.7145   -3.7125    0.0000 C   0  0  0  0  0  0  0  0  0  0  0  0
   -0.0470   -4.1974    0.0000 N   0  0  0  0  0  0  0  0  0  0  0  0
   -0.3020   -4.9820    0.0000 C   0  0  0  0  0  0  0  0  0  0  0  0
   -1.1270   -4.9820    0.0000 C   0  0  0  0  0  0  0  0  0  0  0  0
   -1.3819   -4.1974    0.0000 S   0  0  0  0  0  0  0  0  0  0  0  0
    0.1830   -5.6495    0.0000 C   0  0  0  0  0  0  0  0  0  0  0  0
    0.9366   -5.9850    0.0000 C   0  0  0  0  0  0  0  0  0  0  0  0
    0.2692   -6.4700    0.0000 C   0  0  0  0  0  0  0  0  0  0  0  0
   -2.1434   -2.8875    0.0000 C   0  0  0  0  0  0  0  0  0  0  0  0
   -2.8971   -2.5519    0.0000 N   0  0  0  0  0  0  0  0  0  0  0  0
   -3.4491   -3.1650    0.0000 C   0  0  0  0  0  0  0  0  0  0  0  0
   -3.0366   -3.8795    0.0000 C   0  0  0  0  0  0  0  0  0  0  0  0
   -3.3722   -4.6332    0.0000 C   0  0  0  0  0  0  0  0  0  0  0  0
   -2.2296   -3.7080    0.0000 S   0  0  0  0  0  0  0  0  0  0  0  0
    0.0000   -1.6500    0.0000 C   0  0  0  0  0  0  0  0  0  0  0  0
    0.0000   -2.4750    0.0000 O   0  0  0  0  0  0  0  0  0  0  0  0
    0.7145   -1.2375    0.0000 C   0  0  0  0  0  0  0  0  0  0  0  0
    0.7145   -0.4125    0.0000 C   0  0  0  0  0  0  0  0  0  0  0  0
    1.4289   -0.0000    0.0000 C   0  0  0  0  0  0  0  0  0  0  0  0
    2.1434   -0.4125    0.0000 C   0  0  0  0  0  0  0  0  0  0  0  0
    2.1434   -1.2375    0.0000 C   0  0  0  0  0  0  0  0  0  0  0  0
    1.4289   -1.6500    0.0000 C   0  0  0  0  0  0  0  0  0  0  0  0
    0.0000   -0.0000    0.0000 S   0  0  0  0  0  0  0  0  0  0  0  0
    0.3873    0.7284    0.0000 O   0  0  0  0  0  0  0  0  0  0  0  0
   -0.3873    0.7284    0.0000 O   0  0  0  0  0  0  0  0  0  0  0  0
  1  2  1  0  0  0  0
  2  3  1  0  0  0  0
  3  4  1  0  0  0  0
  4  5  2  0  0  0  0
  4  6  1  0  0  0  0
  6  7  1  0  0  0  0
  7  8  1  0  0  0  0
  8  9  2  0  0  0  0
  9 10  1  0  0  0  0
 10 11  2  0  0  0  0
 11 12  1  0  0  0  0
  8 12  1  0  0  0  0
 10 13  1  0  0  0  0
 13 14  1  0  0  0  0
 14 15  1  0  0  0  0
 13 15  1  0  0  0  0
  6 16  1  0  0  0  0
 16 17  2  0  0  0  0
 17 18  1  0  0  0  0
 18 19  2  0  0  0  0
 19 20  1  0  0  0  0
 19 21  1  0  0  0  0
 16 21  1  0  0  0  0
  3 22  2  0  0  0  0
 22 23  1  0  0  0  0
 22 24  1  0  0  0  0
 24 25  2  0  0  0  0
 25 26  1  0  0  0  0
 26 27  2  0  0  0  0
 27 28  1  0  0  0  0
 28 29  2  0  0  0  0
 24 29  1  0  0  0  0
 25 30  1  0  0  0  0
  2 30  1  0  0  0  0
 30 31  2  0  0  0  0
 30 32  2  0  0  0  0
M  END
> <ID>
CPD_4325

$$$$
CPD_4330
  Mrv1822 09091914012D          

 29 31  0  0  0  0            999 V2000
   -2.8579   -5.7750    0.0000 C   0  0  0  0  0  0  0  0  0  0  0  0
   -2.1434   -5.3625    0.0000 C   0  0  0  0  0  0  0  0  0  0  0  0
   -1.4289   -5.7750    0.0000 O   0  0  0  0  0  0  0  0  0  0  0  0
   -0.7145   -5.3625    0.0000 C   0  0  0  0  0  0  0  0  0  0  0  0
   -0.7145   -4.5375    0.0000 O   0  0  0  0  0  0  0  0  0  0  0  0
    0.0000   -5.7750    0.0000 N   0  0  0  0  0  0  0  0  0  0  0  0
    0.7145   -5.3625    0.0000 C   0  0  0  0  0  0  0  0  0  0  0  0
    1.4289   -5.7750    0.0000 C   0  0  0  0  0  0  0  0  0  0  0  0
    2.1434   -5.3625    0.0000 C   0  0  0  0  0  0  0  0  0  0  0  0
    2.1434   -4.5375    0.0000 O   0  0  0  0  0  0  0  0  0  0  0  0
    2.8579   -4.1250    0.0000 C   0  0  0  0  0  0  0  0  0  0  0  0
    2.8579   -3.3000    0.0000 O   0  0  0  0  0  0  0  0  0  0  0  0
    3.5724   -4.5375    0.0000 C   0  0  0  0  0  0  0  0  0  0  0  0
    4.2868   -4.1250    0.0000 C   0  0  0  0  0  0  0  0  0  0  0  0
    5.0013   -4.5375    0.0000 C   0  0  0  0  0  0  0  0  0  0  0  0
    5.0013   -5.3625    0.0000 C   0  0  0  0  0  0  0  0  0  0  0  0
    4.2868   -5.7750    0.0000 C   0  0  0  0  0  0  0  0  0  0  0  0
    3.5724   -5.3625    0.0000 C   0  0  0  0  0  0  0  0  0  0  0  0
    4.4562   -5.2066    0.0000 C   0  0  0  0  0  0  0  0  0  0  0  0
    3.9799   -4.9316    0.0000 C   0  0  0  0  0  0  0  0  0  0  0  0
    5.7158   -5.7750    0.0000 C   0  0  0  0  0  0  0  0  0  0  0  0
    6.4302   -6.1875    0.0000 C   0  0  0  0  0  0  0  0  0  0  0  0
    2.8579   -5.7750    0.0000 C   0  0  0  0  0  0  0  0  0  0  0  0
    2.8579   -6.6000    0.0000 C   0  0  0  0  0  0  0  0  0  0  0  0
    2.1434   -7.0125    0.0000 C   0  0  0  0  0  0  0  0  0  0  0  0
    1.4289   -6.6000    0.0000 C   0  0  0  0  0  0  0  0  0  0  0  0
    2.1434   -7.8375    0.0000 C   0  0  0  0  0  0  0  0  0  0  0  0
    1.4289   -8.2500    0.0000 O   0  0  0  0  0  0  0  0  0  0  0  0
    2.8579   -8.2500    0.0000 O   0  0  0  0  0  0  0  0  0  0  0  0
  1  2  1  0  0  0  0
  2  3  1  0  0  0  0
  3  4  1  0  0  0  0
  4  5  2  0  0  0  0
  4  6  1  0  0  0  0
  6  7  1  0  0  0  0
  7  8  1  0  0  0  0
  8  9  2  0  0  0  0
  9 10  1  0  0  0  0
 10 11  1  0  0  0  0
 11 12  2  0  0  0  0
 11 13  1  0  0  0  0
 13 14  1  0  0  0  0
 14 15  1  0  0  0  0
 15 16  1  0  0  0  0
 16 17  1  0  0  0  0
 17 18  1  0  0  0  0
 13 18  1  0  0  0  0
 16 19  1  0  0  0  0
 19 20  1  0  0  0  0
 13 20  1  0  0  0  0
 16 21  1  0  0  0  0
 21 22  3  0  0  0  0
  9 23  1  0  0  0  0
 23 24  2  0  0  0  0
 24 25  1  0  0  0  0
 25 26  2  0  0  0  0
  8 26  1  0  0  0  0
 25 27  1  0  0  0  0
 27 28  1  0  0  0  0
 27 29  2  0  0  0  0
M  END
> <ID>
CPD_4330

$$$$
CPD_4335
  Mrv1822 09091914012D          

 29 30  0  0  0  0            999 V2000
    1.4289   -4.1250    0.0000 C   0  0  0  0  0  0  0  0  0  0  0  0
    2.1434   -3.7125    0.0000 C   0  0  0  0  0  0  0  0  0  0  0  0
    2.8579   -4.1250    0.0000 O   0  0  0  0  0  0  0  0  0  0  0  0
    3.5724   -3.7125    0.0000 C   0  0  0  0  0  0  0  0  0  0  0  0
    3.5724   -2.8875    0.0000 O   0  0  0  0  0  0  0  0  0  0  0  0
    4.2868   -4.1250    0.0000 N   0  0  0  0  0  0  0  0  0  0  0  0
    5.0013   -3.7125    0.0000 C   0  0  0  0  0  0  0  0  0  0  0  0
    5.7158   -4.1250    0.0000 C   0  0  0  0  0  0  0  0  0  0  0  0
    6.4302   -3.7125    0.0000 C   0  0  0  0  0  0  0  0  0  0  0  0
    6.4302   -2.8875    0.0000 O   0  0  0  0  0  0  0  0  0  0  0  0
    5.7158   -2.4750    0.0000 C   0  0  0  0  0  0  0  0  0  0  0  0
    5.0013   -2.8875    0.0000 O   0  0  0  0  0  0  0  0  0  0  0  0
    5.7158   -1.6500    0.0000 C   0  0  0  0  0  0  0  0  0  0  0  0
    5.0483   -1.1651    0.0000 C   0  0  0  0  0  0  0  0  0  0  0  0
    4.2637   -1.4200    0.0000 C   0  0  0  0  0  0  0  0  0  0  0  0
    3.6506   -0.8680    0.0000 C   0  0  0  0  0  0  0  0  0  0  0  0
    3.0375   -0.3160    0.0000 C   0  0  0  0  0  0  0  0  0  0  0  0
    4.2026   -0.2549    0.0000 C   0  0  0  0  0  0  0  0  0  0  0  0
    3.0986   -1.4811    0.0000 C   0  0  0  0  0  0  0  0  0  0  0  0
    5.3033   -0.3805    0.0000 N   0  0  0  0  0  0  0  0  0  0  0  0
    6.1283   -0.3805    0.0000 N   0  0  0  0  0  0  0  0  0  0  0  0
    6.3832   -1.1651    0.0000 C   0  0  0  0  0  0  0  0  0  0  0  0
    7.1447   -4.1250    0.0000 C   0  0  0  0  0  0  0  0  0  0  0  0
    7.1447   -4.9500    0.0000 C   0  0  0  0  0  0  0  0  0  0  0  0
    6.4302   -5.3625    0.0000 C   0  0  0  0  0  0  0  0  0  0  0  0
    5.7158   -4.9500    0.0000 C   0  0  0  0  0  0  0  0  0  0  0  0
    6.4302   -6.1875    0.0000 C   0  0  0  0  0  0  0  0  0  0  0  0
    5.7158   -6.6000    0.0000 O   0  0  0  0  0  0  0  0  0  0  0  0
    7.1447   -6.6000    0.0000 O   0  0  0  0  0  0  0  0  0  0  0  0
  1  2  1  0  0  0  0
  2  3  1  0  0  0  0
  3  4  1  0  0  0  0
  4  5  2  0  0  0  0
  4  6  1  0  0  0  0
  6  7  1  0  0  0  0
  7  8  1  0  0  0  0
  8  9  2  0  0  0  0
  9 10  1  0  0  0  0
 10 11  1  0  0  0  0
 11 12  2  0  0  0  0
 11 13  1  0  0  0  0
 13 14  2  0  0  0  0
 14 15  1  0  0  0  0
 15 16  1  0  0  0  0
 16 17  1  0  0  0  0
 16 18  1  0  0  0  0
 16 19  1  0  0  0  0
 14 20  1  0  0  0  0
 20 21  1  0  0  0  0
 21 22  2  0  0  0  0
 13 22  1  0  0  0  0
  9 23  1  0  0  0  0
 23 24  2  0  0  0  0
 24 25  1  0  0  0  0
 25 26  2  0  0  0  0
  8 26  1  0  0  0  0
 25 27  1  0  0  0  0
 27 28  1  0  0  0  0
 27 29  2  0  0  0  0
M  END
> <ID>
CPD_4335

$$$$
CPD_4340
  Mrv1822 09091914012D          

 28 30  0  0  0  0            999 V2000
    2.1434   -1.2375    0.0000 C   0  0  0  0  0  0  0  0  0  0  0  0
    2.8579   -1.6500    0.0000 O   0  0  0  0  0  0  0  0  0  0  0  0
    2.8579   -2.4750    0.0000 C   0  0  0  0  0  0  0  0  0  0  0  0
    3.5724   -2.8875    0.0000 C   0  0  0  0  0  0  0  0  0  0  0  0
    3.5724   -3.7125    0.0000 C   0  0  0  0  0  0  0  0  0  0  0  0
    4.2868   -4.1250    0.0000 C   0  0  0  0  0  0  0  0  0  0  0  0
    5.0013   -3.7125    0.0000 O   0  0  0  0  0  0  0  0  0  0  0  0
    4.2868   -4.9500    0.0000 O   0  0  0  0  0  0  0  0  0  0  0  0
    5.0013   -5.3625    0.0000 C   0  0  0  0  0  0  0  0  0  0  0  0
    5.7158   -4.9500    0.0000 C   0  0  0  0  0  0  0  0  0  0  0  0
    5.7158   -4.1250    0.0000 C   0  0  0  0  0  0  0  0  0  0  0  0
    6.4302   -3.7125    0.0000 C   0  0  0  0  0  0  0  0  0  0  0  0
    7.1447   -4.1250    0.0000 C   0  0  0  0  0  0  0  0  0  0  0  0
    7.8592   -3.7125    0.0000 F   0  0  0  0  0  0  0  0  0  0  0  0
    7.1447   -4.9500    0.0000 C   0  0  0  0  0  0  0  0  0  0  0  0
    6.4302   -5.3625    0.0000 C   0  0  0  0  0  0  0  0  0  0  0  0
    5.0013   -6.1875    0.0000 C   0  0  0  0  0  0  0  0  0  0  0  0
    5.7158   -6.6000    0.0000 C   0  0  0  0  0  0  0  0  0  0  0  0
    5.7158   -7.4250    0.0000 C   0  0  0  0  0  0  0  0  0  0  0  0
    5.0013   -7.8375    0.0000 C   0  0  0  0  0  0  0  0  0  0  0  0
    4.2868   -7.4250    0.0000 C   0  0  0  0  0  0  0  0  0  0  0  0
    4.2868   -6.6000    0.0000 C   0  0  0  0  0  0  0  0  0  0  0  0
    5.0013   -8.6625    0.0000 C   0  0  0  0  0  0  0  0  0  0  0  0
    5.0013   -9.4875    0.0000 N   0  0  0  0  0  0  0  0  0  0  0  0
    2.8579   -4.1250    0.0000 C   0  0  0  0  0  0  0  0  0  0  0  0
    2.8579   -4.9500    0.0000 Cl  0  0  0  0  0  0  0  0  0  0  0  0
    2.1434   -3.7125    0.0000 C   0  0  0  0  0  0  0  0  0  0  0  0
    2.1434   -2.8875    0.0000 C   0  0  0  0  0  0  0  0  0  0  0  0
  1  2  1  0  0  0  0
  2  3  1  0  0  0  0
  3  4  2  0  0  0  0
  4  5  1  0  0  0  0
  5  6  1  0  0  0  0
  6  7  2  0  0  0  0
  6  8  1  0  0  0  0
  8  9  1  0  0  0  0
  9 10  1  0  0  0  0
 10 11  2  0  0  0  0
 11 12  1  0  0  0  0
 12 13  2  0  0  0  0
 13 14  1  0  0  0  0
 13 15  1  0  0  0  0
 15 16  2  0  0  0  0
 10 16  1  0  0  0  0
  9 17  1  0  0  0  0
 17 18  2  0  0  0  0
 18 19  1  0  0  0  0
 19 20  2  0  0  0  0
 20 21  1  0  0  0  0
 21 22  2  0  0  0  0
 17 22  1  0  0  0  0
 20 23  1  0  0  0  0
 23 24  3  0  0  0  0
  5 25  2  0  0  0  0
 25 26  1  0  0  0  0
 25 27  1  0  0  0  0
 27 28  2  0  0  0  0
  3 28  1  0  0  0  0
M  END
> <ID>
CPD_4340

$$$$
CPD_4345
  Mrv1822 09091914012D          

 32 33  0  0  1  0            999 V2000
   -0.1914   -3.1895    0.0000 C   0  0  0  0  0  0  0  0  0  0  0  0
   -1.0164   -3.1895    0.0000 C   0  0  0  0  0  0  0  0  0  0  0  0
   -1.4289   -3.9039    0.0000 C   0  0  0  0  0  0  0  0  0  0  0  0
   -1.4289   -2.4750    0.0000 C   0  0  0  0  0  0  0  0  0  0  0  0
   -1.0164   -1.7605    0.0000 C   0  0  2  0  0  0  0  0  0  0  0  0
   -1.4289   -1.0461    0.0000 N   0  0  0  0  0  0  0  0  0  0  0  0
   -2.2539   -1.0461    0.0000 C   0  0  0  0  0  0  0  0  0  0  0  0
   -2.6664   -1.7605    0.0000 O   0  0  0  0  0  0  0  0  0  0  0  0
   -2.6664   -0.3316    0.0000 O   0  0  0  0  0  0  0  0  0  0  0  0
   -3.4914   -0.3316    0.0000 C   0  0  0  0  0  0  0  0  0  0  0  0
   -4.3164   -0.3316    0.0000 C   0  0  0  0  0  0  0  0  0  0  0  0
   -3.4914   -1.1566    0.0000 C   0  0  0  0  0  0  0  0  0  0  0  0
   -3.4914    0.4934    0.0000 C   0  0  0  0  0  0  0  0  0  0  0  0
   -0.1914   -1.7605    0.0000 C   0  0  0  0  0  0  0  0  0  0  0  0
    0.2211   -1.0461    0.0000 O   0  0  0  0  0  0  0  0  0  0  0  0
    0.2211   -2.4750    0.0000 O   0  0  0  0  0  0  0  0  0  0  0  0
    1.0461   -2.4750    0.0000 C   0  0  0  0  0  0  0  0  0  0  0  0
    1.4586   -3.1895    0.0000 C   0  0  0  0  0  0  0  0  0  0  0  0
    2.2836   -3.1895    0.0000 C   0  0  0  0  0  0  0  0  0  0  0  0
    2.6961   -3.9039    0.0000 C   0  0  0  0  0  0  0  0  0  0  0  0
    2.2836   -4.6184    0.0000 C   0  0  0  0  0  0  0  0  0  0  0  0
    2.6961   -5.3329    0.0000 F   0  0  0  0  0  0  0  0  0  0  0  0
    1.4586   -4.6184    0.0000 C   0  0  0  0  0  0  0  0  0  0  0  0
    1.0461   -3.9039    0.0000 C   0  0  0  0  0  0  0  0  0  0  0  0
    1.4586   -1.7605    0.0000 C   0  0  0  0  0  0  0  0  0  0  0  0
    1.0461   -1.0461    0.0000 C   0  0  0  0  0  0  0  0  0  0  0  0
    1.4586   -0.3316    0.0000 C   0  0  0  0  0  0  0  0  0  0  0  0
    2.2836   -0.3316    0.0000 C   0  0  0  0  0  0  0  0  0  0  0  0
    2.6961   -1.0461    0.0000 C   0  0  0  0  0  0  0  0  0  0  0  0
    2.2836   -1.7605    0.0000 C   0  0  0  0  0  0  0  0  0  0  0  0
    2.6961    0.3829    0.0000 C   0  0  0  0  0  0  0  0  0  0  0  0
    3.1086    1.0974    0.0000 N   0  0  0  0  0  0  0  0  0  0  0  0
  1  2  1  0  0  0  0
  2  3  1  0  0  0  0
  2  4  1  0  0  0  0
  5  4  1  0  0  0  0
  5  6  1  6  0  0  0
  6  7  1  0  0  0  0
  7  8  2  0  0  0  0
  7  9  1  0  0  0  0
  9 10  1  0  0  0  0
 10 11  1  0  0  0  0
 10 12  1  0  0  0  0
 10 13  1  0  0  0  0
  5 14  1  0  0  0  0
 14 15  2  0  0  0  0
 14 16  1  0  0  0  0
 16 17  1  0  0  0  0
 17 18  1  0  0  0  0
 18 19  2  0  0  0  0
 19 20  1  0  0  0  0
 20 21  2  0  0  0  0
 21 22  1  0  0  0  0
 21 23  1  0  0  0  0
 23 24  2  0  0  0  0
 18 24  1  0  0  0  0
 17 25  1  0  0  0  0
 25 26  2  0  0  0  0
 26 27  1  0  0  0  0
 27 28  2  0  0  0  0
 28 29  1  0  0  0  0
 29 30  2  0  0  0  0
 25 30  1  0  0  0  0
 28 31  1  0  0  0  0
 31 32  3  0  0  0  0
M  END
> <ID>
CPD_4345

$$$$
CPD_4350
  Mrv1822 09091914012D          

 26 28  0  0  0  0            999 V2000
    1.4289   -1.6500    0.0000 C   0  0  0  0  0  0  0  0  0  0  0  0
    1.4289   -2.4750    0.0000 C   0  0  0  0  0  0  0  0  0  0  0  0
    2.1434   -2.8875    0.0000 C   0  0  0  0  0  0  0  0  0  0  0  0
    2.8579   -2.4750    0.0000 Cl  0  0  0  0  0  0  0  0  0  0  0  0
    2.1434   -3.7125    0.0000 C   0  0  0  0  0  0  0  0  0  0  0  0
    1.4289   -4.1250    0.0000 C   0  0  0  0  0  0  0  0  0  0  0  0
    1.4289   -4.9500    0.0000 O   0  0  0  0  0  0  0  0  0  0  0  0
    2.1434   -5.3625    0.0000 C   0  0  0  0  0  0  0  0  0  0  0  0
    2.8579   -4.9500    0.0000 C   0  0  0  0  0  0  0  0  0  0  0  0
    2.8579   -4.1250    0.0000 C   0  0  0  0  0  0  0  0  0  0  0  0
    3.5724   -3.7125    0.0000 C   0  0  0  0  0  0  0  0  0  0  0  0
    4.2868   -4.1250    0.0000 C   0  0  0  0  0  0  0  0  0  0  0  0
    5.0013   -3.7125    0.0000 F   0  0  0  0  0  0  0  0  0  0  0  0
    4.2868   -4.9500    0.0000 C   0  0  0  0  0  0  0  0  0  0  0  0
    3.5724   -5.3625    0.0000 C   0  0  0  0  0  0  0  0  0  0  0  0
    2.1434   -6.1875    0.0000 C   0  0  0  0  0  0  0  0  0  0  0  0
    2.8579   -6.6000    0.0000 C   0  0  0  0  0  0  0  0  0  0  0  0
    2.8579   -7.4250    0.0000 C   0  0  0  0  0  0  0  0  0  0  0  0
    2.1434   -7.8375    0.0000 C   0  0  0  0  0  0  0  0  0  0  0  0
    1.4289   -7.4250    0.0000 C   0  0  0  0  0  0  0  0  0  0  0  0
    1.4289   -6.6000    0.0000 C   0  0  0  0  0  0  0  0  0  0  0  0
    2.1434   -8.6625    0.0000 C   0  0  0  0  0  0  0  0  0  0  0  0
    2.1434   -9.4875    0.0000 N   0  0  0  0  0  0  0  0  0  0  0  0
    0.7145   -3.7125    0.0000 C   0  0  0  0  0  0  0  0  0  0  0  0
    0.0000   -4.1250    0.0000 N   0  0  0  0  0  0  0  0  0  0  0  0
    0.7145   -2.8875    0.0000 C   0  0  0  0  0  0  0  0  0  0  0  0
  1  2  1  0  0  0  0
  2  3  2  0  0  0  0
  3  4  1  0  0  0  0
  3  5  1  0  0  0  0
  5  6  2  0  0  0  0
  6  7  1  0  0  0  0
  7  8  1  0  0  0  0
  8  9  1  0  0  0  0
  9 10  2  0  0  0  0
 10 11  1  0  0  0  0
 11 12  2  0  0  0  0
 12 13  1  0  0  0  0
 12 14  1  0  0  0  0
 14 15  2  0  0  0  0
  9 15  1  0  0  0  0
  8 16  1  0  0  0  0
 16 17  2  0  0  0  0
 17 18  1  0  0  0  0
 18 19  2  0  0  0  0
 19 20  1  0  0  0  0
 20 21  2  0  0  0  0
 16 21  1  0  0  0  0
 19 22  1  0  0  0  0
 22 23  3  0  0  0  0
  6 24  1  0  0  0  0
 24 25  1  0  0  0  0
 24 26  2  0  0  0  0
  2 26  1  0  0  0  0
M  END
> <ID>
CPD_4350

$$$$
CPD_4355
  Mrv1822 09091914012D          

 25 27  0  0  0  0            999 V2000
    2.1434   -4.5375    0.0000 F   0  0  0  0  0  0  0  0  0  0  0  0
    1.4289   -4.1250    0.0000 C   0  0  0  0  0  0  0  0  0  0  0  0
    0.7145   -4.5375    0.0000 C   0  0  0  0  0  0  0  0  0  0  0  0
    0.0000   -4.1250    0.0000 C   0  0  0  0  0  0  0  0  0  0  0  0
    0.0000   -3.3000    0.0000 C   0  0  0  0  0  0  0  0  0  0  0  0
    0.7145   -2.8875    0.0000 C   0  0  0  0  0  0  0  0  0  0  0  0
    1.4289   -3.3000    0.0000 C   0  0  0  0  0  0  0  0  0  0  0  0
    0.7145   -2.0625    0.0000 C   0  0  0  0  0  0  0  0  0  0  0  0
    1.4289   -1.6500    0.0000 N   0  0  0  0  0  0  0  0  0  0  0  0
    2.1434   -2.0625    0.0000 C   0  0  0  0  0  0  0  0  0  0  0  0
    2.8579   -1.6500    0.0000 C   0  0  0  0  0  0  0  0  0  0  0  0
    3.5724   -2.0625    0.0000 C   0  0  0  0  0  0  0  0  0  0  0  0
    4.3260   -1.7269    0.0000 N   0  0  0  0  0  0  0  0  0  0  0  0
    4.8781   -2.3400    0.0000 N   0  0  0  0  0  0  0  0  0  0  0  0
    4.4656   -3.0545    0.0000 C   0  0  0  0  0  0  0  0  0  0  0  0
    4.8011   -3.8082    0.0000 O   0  0  0  0  0  0  0  0  0  0  0  0
    3.6586   -2.8830    0.0000 N   0  0  0  0  0  0  0  0  0  0  0  0
    0.0000   -1.6500    0.0000 C   0  0  0  0  0  0  0  0  0  0  0  0
   -0.7145   -2.0625    0.0000 C   0  0  0  0  0  0  0  0  0  0  0  0
   -1.4289   -1.6500    0.0000 C   0  0  0  0  0  0  0  0  0  0  0  0
   -1.4289   -0.8250    0.0000 C   0  0  0  0  0  0  0  0  0  0  0  0
   -0.7145   -0.4125    0.0000 C   0  0  0  0  0  0  0  0  0  0  0  0
    0.0000   -0.8250    0.0000 C   0  0  0  0  0  0  0  0  0  0  0  0
   -2.1434   -0.4125    0.0000 C   0  0  0  0  0  0  0  0  0  0  0  0
   -2.8579   -0.0000    0.0000 N   0  0  0  0  0  0  0  0  0  0  0  0
  1  2  1  0  0  0  0
  2  3  2  0  0  0  0
  3  4  1  0  0  0  0
  4  5  2  0  0  0  0
  5  6  1  0  0  0  0
  6  7  2  0  0  0  0
  2  7  1  0  0  0  0
  6  8  1  0  0  0  0
  8  9  1  0  0  0  0
  9 10  1  0  0  0  0
 10 11  1  0  0  0  0
 11 12  1  0  0  0  0
 12 13  2  0  0  0  0
 13 14  1  0  0  0  0
 14 15  1  0  0  0  0
 15 16  2  0  0  0  0
 15 17  1  0  0  0  0
 12 17  1  0  0  0  0
  8 18  1  0  0  0  0
 18 19  2  0  0  0  0
 19 20  1  0  0  0  0
 20 21  2  0  0  0  0
 21 22  1  0  0  0  0
 22 23  2  0  0  0  0
 18 23  1  0  0  0  0
 21 24  1  0  0  0  0
 24 25  3  0  0  0  0
M  END
> <ID>
CPD_4355

$$$$
CPD_4360
  Mrv1822 09091914012D          

 31 34  0  0  0  0            999 V2000
   -4.9841   -5.1413    0.0000 C   0  0  0  0  0  0  0  0  0  0  0  0
   -4.1636   -5.2275    0.0000 C   0  0  0  0  0  0  0  0  0  0  0  0
   -3.6116   -4.6144    0.0000 N   0  0  0  0  0  0  0  0  0  0  0  0
   -2.8579   -4.9500    0.0000 N   0  0  0  0  0  0  0  0  0  0  0  0
   -2.9441   -5.7705    0.0000 C   0  0  0  0  0  0  0  0  0  0  0  0
   -2.3310   -6.3225    0.0000 C   0  0  0  0  0  0  0  0  0  0  0  0
   -3.7511   -5.9420    0.0000 C   0  0  0  0  0  0  0  0  0  0  0  0
   -2.1434   -4.5375    0.0000 C   0  0  0  0  0  0  0  0  0  0  0  0
   -2.1434   -3.7125    0.0000 N   0  0  0  0  0  0  0  0  0  0  0  0
   -1.4289   -3.3000    0.0000 N   0  0  0  0  0  0  0  0  0  0  0  0
   -0.7145   -3.7125    0.0000 C   0  0  0  0  0  0  0  0  0  0  0  0
    0.0000   -3.3000    0.0000 N   0  0  0  0  0  0  0  0  0  0  0  0
    0.0000   -2.4750    0.0000 C   0  0  0  0  0  0  0  0  0  0  0  0
    0.8250   -2.4750    0.0000 C   0  0  0  0  0  0  0  0  0  0  0  0
    1.2375   -3.1895    0.0000 O   0  0  0  0  0  0  0  0  0  0  0  0
   -0.8250   -2.4750    0.0000 C   0  0  0  0  0  0  0  0  0  0  0  0
   -1.2375   -1.7605    0.0000 O   0  0  0  0  0  0  0  0  0  0  0  0
    0.0000   -1.6500    0.0000 C   0  0  0  0  0  0  0  0  0  0  0  0
    0.7145   -1.2375    0.0000 N   0  0  0  0  0  0  0  0  0  0  0  0
    0.7145   -0.4125    0.0000 C   0  0  0  0  0  0  0  0  0  0  0  0
    1.4289    0.0000    0.0000 C   0  0  0  0  0  0  0  0  0  0  0  0
    2.1434   -0.4125    0.0000 C   0  0  0  0  0  0  0  0  0  0  0  0
    2.8579    0.0000    0.0000 C   0  0  0  0  0  0  0  0  0  0  0  0
    3.5724   -0.4125    0.0000 C   0  0  0  0  0  0  0  0  0  0  0  0
    4.2868   -0.0000    0.0000 Br  0  0  0  0  0  0  0  0  0  0  0  0
    3.5724   -1.2375    0.0000 C   0  0  0  0  0  0  0  0  0  0  0  0
    2.8579   -1.6500    0.0000 C   0  0  0  0  0  0  0  0  0  0  0  0
    2.1434   -1.2375    0.0000 C   0  0  0  0  0  0  0  0  0  0  0  0
    1.4289   -1.6500    0.0000 C   0  0  0  0  0  0  0  0  0  0  0  0
   -0.7145   -4.5375    0.0000 N   0  0  0  0  0  0  0  0  0  0  0  0
   -1.4289   -4.9500    0.0000 N   0  0  0  0  0  0  0  0  0  0  0  0
  1  2  1  0  0  0  0
  2  3  2  0  0  0  0
  3  4  1  0  0  0  0
  4  5  1  0  0  0  0
  5  6  1  0  0  0  0
  5  7  2  0  0  0  0
  2  7  1  0  0  0  0
  4  8  1  0  0  0  0
  8  9  2  0  0  0  0
  9 10  1  0  0  0  0
 10 11  2  0  0  0  0
 11 12  1  0  0  0  0
 12 13  1  0  0  0  0
 13 14  1  0  0  0  0
 14 15  1  0  0  0  0
 13 16  1  0  0  0  0
 16 17  1  0  0  0  0
 13 18  1  0  0  0  0
 18 19  1  0  0  0  0
 19 20  1  0  0  0  0
 20 21  1  0  0  0  0
 21 22  1  0  0  0  0
 22 23  2  0  0  0  0
 23 24  1  0  0  0  0
 24 25  1  0  0  0  0
 24 26  2  0  0  0  0
 26 27  1  0  0  0  0
 27 28  2  0  0  0  0
 22 28  1  0  0  0  0
 28 29  1  0  0  0  0
 19 29  1  0  0  0  0
 11 30  1  0  0  0  0
 30 31  2  0  0  0  0
  8 31  1  0  0  0  0
M  END
> <ID>
CPD_4360

$$$$
CPD_4365
  Mrv1822 09091914012D          

 38 42  0  0  0  0            999 V2000
    0.1830   10.5995    0.0000 C   0  0  0  0  0  0  0  0  0  0  0  0
   -0.3020    9.9320    0.0000 C   0  0  0  0  0  0  0  0  0  0  0  0
   -0.0470    9.1474    0.0000 N   0  0  0  0  0  0  0  0  0  0  0  0
   -0.7145    8.6625    0.0000 N   0  0  0  0  0  0  0  0  0  0  0  0
   -1.3819    9.1474    0.0000 C   0  0  0  0  0  0  0  0  0  0  0  0
   -2.1665    8.8925    0.0000 C   0  0  0  0  0  0  0  0  0  0  0  0
   -1.1270    9.9320    0.0000 C   0  0  0  0  0  0  0  0  0  0  0  0
   -0.7145    7.8375    0.0000 C   0  0  0  0  0  0  0  0  0  0  0  0
   -0.0000    7.4250    0.0000 N   0  0  0  0  0  0  0  0  0  0  0  0
   -0.0000    6.6000    0.0000 N   0  0  0  0  0  0  0  0  0  0  0  0
   -0.7145    6.1875    0.0000 C   0  0  0  0  0  0  0  0  0  0  0  0
   -0.7145    5.3625    0.0000 N   0  0  0  0  0  0  0  0  0  0  0  0
   -0.0000    4.9500    0.0000 C   0  0  0  0  0  0  0  0  0  0  0  0
   -0.4125    4.2355    0.0000 C   0  0  0  0  0  0  0  0  0  0  0  0
   -1.2375    4.2355    0.0000 O   0  0  0  0  0  0  0  0  0  0  0  0
    0.4125    5.6645    0.0000 C   0  0  0  0  0  0  0  0  0  0  0  0
    1.2375    5.6645    0.0000 O   0  0  0  0  0  0  0  0  0  0  0  0
    0.7145    4.5375    0.0000 C   0  0  0  0  0  0  0  0  0  0  0  0
    0.7145    3.7125    0.0000 N   0  0  0  0  0  0  0  0  0  0  0  0
    1.4289    3.3000    0.0000 C   0  0  0  0  0  0  0  0  0  0  0  0
    1.4289    2.4750    0.0000 C   0  0  0  0  0  0  0  0  0  0  0  0
    0.7145    2.0625    0.0000 C   0  0  0  0  0  0  0  0  0  0  0  0
    0.7145    1.2375    0.0000 C   0  0  0  0  0  0  0  0  0  0  0  0
    1.4289    0.8250    0.0000 O   0  0  0  0  0  0  0  0  0  0  0  0
    1.4289    0.0000    0.0000 C   0  0  0  0  0  0  0  0  0  0  0  0
    2.1434   -0.4125    0.0000 C   0  0  0  0  0  0  0  0  0  0  0  0
    2.8579    0.0000    0.0000 C   0  0  0  0  0  0  0  0  0  0  0  0
    3.5724   -0.4125    0.0000 C   0  0  0  0  0  0  0  0  0  0  0  0
    3.5724   -1.2375    0.0000 C   0  0  0  0  0  0  0  0  0  0  0  0
    2.8579   -1.6500    0.0000 C   0  0  0  0  0  0  0  0  0  0  0  0
    2.1434   -1.2375    0.0000 C   0  0  0  0  0  0  0  0  0  0  0  0
    1.4289   -1.6500    0.0000 C   0  0  0  0  0  0  0  0  0  0  0  0
    0.7145   -1.2375    0.0000 C   0  0  0  0  0  0  0  0  0  0  0  0
    0.7145   -0.4125    0.0000 C   0  0  0  0  0  0  0  0  0  0  0  0
    0.0000    2.4750    0.0000 C   0  0  0  0  0  0  0  0  0  0  0  0
   -0.0000    3.3000    0.0000 C   0  0  0  0  0  0  0  0  0  0  0  0
   -1.4289    6.6000    0.0000 N   0  0  0  0  0  0  0  0  0  0  0  0
   -1.4289    7.4250    0.0000 N   0  0  0  0  0  0  0  0  0  0  0  0
  1  2  1  0  0  0  0
  2  3  2  0  0  0  0
  3  4  1  0  0  0  0
  4  5  1  0  0  0  0
  5  6  1  0  0  0  0
  5  7  2  0  0  0  0
  2  7  1  0  0  0  0
  4  8  1  0  0  0  0
  8  9  2  0  0  0  0
  9 10  1  0  0  0  0
 10 11  2  0  0  0  0
 11 12  1  0  0  0  0
 12 13  1  0  0  0  0
 13 14  1  0  0  0  0
 14 15  1  0  0  0  0
 13 16  1  0  0  0  0
 16 17  1  0  0  0  0
 13 18  1  0  0  0  0
 18 19  1  0  0  0  0
 19 20  1  0  0  0  0
 20 21  1  0  0  0  0
 21 22  1  0  0  0  0
 22 23  1  0  0  0  0
 23 24  1  0  0  0  0
 24 25  1  0  0  0  0
 25 26  2  0  0  0  0
 26 27  1  0  0  0  0
 27 28  1  0  0  0  0
 28 29  1  0  0  0  0
 29 30  1  0  0  0  0
 30 31  1  0  0  0  0
 26 31  1  0  0  0  0
 31 32  2  0  0  0  0
 32 33  1  0  0  0  0
 33 34  2  0  0  0  0
 25 34  1  0  0  0  0
 22 35  1  0  0  0  0
 35 36  1  0  0  0  0
 19 36  1  0  0  0  0
 11 37  1  0  0  0  0
 37 38  2  0  0  0  0
  8 38  1  0  0  0  0
M  END
> <ID>
CPD_4365

$$$$
CPD_4370
  Mrv1822 09091914012D          

 32 34  0  0  0  0            999 V2000
    2.8579   -5.7750    0.0000 C   0  0  0  0  0  0  0  0  0  0  0  0
    2.8579   -6.6000    0.0000 C   0  0  0  0  0  0  0  0  0  0  0  0
    3.5253   -7.0849    0.0000 N   0  0  0  0  0  0  0  0  0  0  0  0
    3.2704   -7.8695    0.0000 N   0  0  0  0  0  0  0  0  0  0  0  0
    2.4454   -7.8695    0.0000 C   0  0  0  0  0  0  0  0  0  0  0  0
    1.9605   -8.5370    0.0000 C   0  0  0  0  0  0  0  0  0  0  0  0
    2.1904   -7.0849    0.0000 C   0  0  0  0  0  0  0  0  0  0  0  0
    3.7553   -8.5370    0.0000 C   0  0  0  0  0  0  0  0  0  0  0  0
    4.5758   -8.4507    0.0000 N   0  0  0  0  0  0  0  0  0  0  0  0
    5.0607   -9.1182    0.0000 N   0  0  0  0  0  0  0  0  0  0  0  0
    4.7252   -9.8719    0.0000 C   0  0  0  0  0  0  0  0  0  0  0  0
    5.2101  -10.5393    0.0000 N   0  0  0  0  0  0  0  0  0  0  0  0
    6.0306  -10.4531    0.0000 C   0  0  0  0  0  0  0  0  0  0  0  0
    6.1168  -11.2735    0.0000 C   0  0  0  0  0  0  0  0  0  0  0  0
    6.8705  -11.6091    0.0000 O   0  0  0  0  0  0  0  0  0  0  0  0
    5.9443   -9.6326    0.0000 C   0  0  0  0  0  0  0  0  0  0  0  0
    6.6118   -9.1477    0.0000 O   0  0  0  0  0  0  0  0  0  0  0  0
    6.8510  -10.3668    0.0000 C   0  0  0  0  0  0  0  0  0  0  0  0
    7.3360  -11.0343    0.0000 O   0  0  0  0  0  0  0  0  0  0  0  0
    8.1564  -10.9480    0.0000 C   0  0  0  0  0  0  0  0  0  0  0  0
    8.6414  -11.6155    0.0000 C   0  0  0  0  0  0  0  0  0  0  0  0
    9.4618  -11.5292    0.0000 N   0  0  0  0  0  0  0  0  0  0  0  0
    9.9468  -12.1967    0.0000 C   0  0  0  0  0  0  0  0  0  0  0  0
   10.7672  -12.1104    0.0000 C   0  0  0  0  0  0  0  0  0  0  0  0
    9.6112  -12.9503    0.0000 C   0  0  0  0  0  0  0  0  0  0  0  0
    8.7907  -13.0366    0.0000 C   0  0  0  0  0  0  0  0  0  0  0  0
    8.4552  -13.7903    0.0000 C   0  0  0  0  0  0  0  0  0  0  0  0
    8.3058  -12.3691    0.0000 C   0  0  0  0  0  0  0  0  0  0  0  0
    7.4853  -12.4554    0.0000 C   0  0  0  0  0  0  0  0  0  0  0  0
    6.6648  -12.5416    0.0000 N   0  0  0  0  0  0  0  0  0  0  0  0
    3.9047   -9.9581    0.0000 N   0  0  0  0  0  0  0  0  0  0  0  0
    3.4197   -9.2907    0.0000 N   0  0  0  0  0  0  0  0  0  0  0  0
  1  2  1  0  0  0  0
  2  3  2  0  0  0  0
  3  4  1  0  0  0  0
  4  5  1  0  0  0  0
  5  6  1  0  0  0  0
  5  7  2  0  0  0  0
  2  7  1  0  0  0  0
  4  8  1  0  0  0  0
  8  9  2  0  0  0  0
  9 10  1  0  0  0  0
 10 11  2  0  0  0  0
 11 12  1  0  0  0  0
 12 13  1  0  0  0  0
 13 14  1  0  0  0  0
 14 15  1  0  0  0  0
 13 16  1  0  0  0  0
 16 17  1  0  0  0  0
 13 18  1  0  0  0  0
 18 19  1  0  0  0  0
 19 20  1  0  0  0  0
 20 21  1  0  0  0  0
 21 22  2  0  0  0  0
 22 23  1  0  0  0  0
 23 24  1  0  0  0  0
 23 25  2  0  0  0  0
 25 26  1  0  0  0  0
 26 27  1  0  0  0  0
 26 28  2  0  0  0  0
 21 28  1  0  0  0  0
 28 29  1  0  0  0  0
 29 30  3  0  0  0  0
 11 31  1  0  0  0  0
 31 32  2  0  0  0  0
  8 32  1  0  0  0  0
M  END
> <ID>
CPD_4370

$$$$
CPD_4375
  Mrv1822 09091914012D          

 31 35  0  0  0  0            999 V2000
   -4.2868    2.4750    0.0000 C   0  0  0  0  0  0  0  0  0  0  0  0
   -3.5724    2.0625    0.0000 O   0  0  0  0  0  0  0  0  0  0  0  0
   -2.8579    2.4750    0.0000 C   0  0  0  0  0  0  0  0  0  0  0  0
   -2.1434    2.0625    0.0000 C   0  0  0  0  0  0  0  0  0  0  0  0
   -1.4289    2.4750    0.0000 C   0  0  0  0  0  0  0  0  0  0  0  0
   -1.4289    3.3000    0.0000 N   0  0  0  0  0  0  0  0  0  0  0  0
   -2.1434    3.7125    0.0000 C   0  0  0  0  0  0  0  0  0  0  0  0
   -2.8579    3.3000    0.0000 C   0  0  0  0  0  0  0  0  0  0  0  0
   -3.5724    3.7125    0.0000 C   0  0  0  0  0  0  0  0  0  0  0  0
   -3.5724    4.5375    0.0000 C   0  0  0  0  0  0  0  0  0  0  0  0
   -2.8579    4.9500    0.0000 C   0  0  0  0  0  0  0  0  0  0  0  0
   -2.1434    4.5375    0.0000 C   0  0  0  0  0  0  0  0  0  0  0  0
   -0.7145    2.0625    0.0000 C   0  0  0  0  0  0  0  0  0  0  0  0
    0.0000    2.4750    0.0000 C   0  0  0  0  0  0  0  0  0  0  0  0
    0.7145    2.0625    0.0000 C   0  0  0  0  0  0  0  0  0  0  0  0
    1.4289    2.4750    0.0000 O   0  0  0  0  0  0  0  0  0  0  0  0
    0.7145    1.2375    0.0000 C   0  0  0  0  0  0  0  0  0  0  0  0
    1.4289    0.8250    0.0000 O   0  0  0  0  0  0  0  0  0  0  0  0
    1.4289    0.0000    0.0000 C   0  0  0  0  0  0  0  0  0  0  0  0
    2.1434   -0.4125    0.0000 C   0  0  0  0  0  0  0  0  0  0  0  0
    2.8579    0.0000    0.0000 C   0  0  0  0  0  0  0  0  0  0  0  0
    3.5724   -0.4125    0.0000 C   0  0  0  0  0  0  0  0  0  0  0  0
    3.5724   -1.2375    0.0000 C   0  0  0  0  0  0  0  0  0  0  0  0
    2.8579   -1.6500    0.0000 C   0  0  0  0  0  0  0  0  0  0  0  0
    2.8579   -2.4750    0.0000 O   0  0  0  0  0  0  0  0  0  0  0  0
    2.1434   -1.2375    0.0000 C   0  0  0  0  0  0  0  0  0  0  0  0
    1.4289   -1.6500    0.0000 C   0  0  0  0  0  0  0  0  0  0  0  0
    0.7145   -1.2375    0.0000 C   0  0  0  0  0  0  0  0  0  0  0  0
    0.7145   -0.4125    0.0000 N   0  0  0  0  0  0  0  0  0  0  0  0
    0.0000    0.8250    0.0000 C   0  0  0  0  0  0  0  0  0  0  0  0
   -0.7145    1.2375    0.0000 C   0  0  0  0  0  0  0  0  0  0  0  0
  1  2  1  0  0  0  0
  2  3  1  0  0  0  0
  3  4  2  0  0  0  0
  4  5  1  0  0  0  0
  5  6  2  0  0  0  0
  6  7  1  0  0  0  0
  7  8  2  0  0  0  0
  3  8  1  0  0  0  0
  8  9  1  0  0  0  0
  9 10  2  0  0  0  0
 10 11  1  0  0  0  0
 11 12  2  0  0  0  0
  7 12  1  0  0  0  0
  5 13  1  0  0  0  0
 13 14  2  0  0  0  0
 14 15  1  0  0  0  0
 15 16  1  0  0  0  0
 15 17  2  0  0  0  0
 17 18  1  0  0  0  0
 18 19  1  0  0  0  0
 19 20  2  0  0  0  0
 20 21  1  0  0  0  0
 21 22  2  0  0  0  0
 22 23  1  0  0  0  0
 23 24  2  0  0  0  0
 24 25  1  0  0  0  0
 24 26  1  0  0  0  0
 20 26  1  0  0  0  0
 26 27  2  0  0  0  0
 27 28  1  0  0  0  0
 28 29  2  0  0  0  0
 19 29  1  0  0  0  0
 17 30  1  0  0  0  0
 30 31  2  0  0  0  0
 13 31  1  0  0  0  0
M  END
> <ID>
CPD_4375

$$$$
CPD_4380
  Mrv1822 09091914012D          

 36 37  0  0  1  0            999 V2000
    4.8011   -5.4582    0.0000 C   0  0  0  0  0  0  0  0  0  0  0  0
    4.8011   -4.6332    0.0000 C   0  0  1  0  0  0  0  0  0  0  0  0
    4.0866   -4.2207    0.0000 O   0  0  0  0  0  0  0  0  0  0  0  0
    3.3722   -4.6332    0.0000 C   0  0  0  0  0  0  0  0  0  0  0  0
    3.3722   -5.4582    0.0000 C   0  0  2  0  0  0  0  0  0  0  0  0
    4.0396   -5.9431    0.0000 C   0  0  0  0  0  0  0  0  0  0  0  0
    3.7847   -6.7277    0.0000 N   0  0  0  0  0  0  0  0  0  0  0  0
    2.9597   -6.7277    0.0000 C   0  0  0  0  0  0  0  0  0  0  0  0
    2.7047   -5.9431    0.0000 C   0  0  2  0  0  0  0  0  0  0  0  0
    1.9201   -5.6882    0.0000 N   0  0  0  0  0  0  0  0  0  0  0  0
    1.7486   -4.8812    0.0000 C   0  0  0  0  0  0  0  0  0  0  0  0
    2.3617   -4.3292    0.0000 O   0  0  0  0  0  0  0  0  0  0  0  0
    0.9640   -4.6263    0.0000 O   0  0  0  0  0  0  0  0  0  0  0  0
    0.7924   -3.8193    0.0000 C   0  0  0  0  0  0  0  0  0  0  0  0
    1.5994   -3.6478    0.0000 C   0  0  0  0  0  0  0  0  0  0  0  0
   -0.0145   -3.9908    0.0000 C   0  0  0  0  0  0  0  0  0  0  0  0
    0.6209   -3.0123    0.0000 C   0  0  0  0  0  0  0  0  0  0  0  0
    4.2696   -7.3952    0.0000 C   0  0  0  0  0  0  0  0  0  0  0  0
    5.0901   -7.3089    0.0000 O   0  0  0  0  0  0  0  0  0  0  0  0
    3.9340   -8.1488    0.0000 O   0  0  0  0  0  0  0  0  0  0  0  0
    4.4190   -8.8163    0.0000 C   0  0  0  0  0  0  0  0  0  0  0  0
    4.0834   -9.5700    0.0000 C   0  0  0  0  0  0  0  0  0  0  0  0
    4.5683  -10.2374    0.0000 C   0  0  0  0  0  0  0  0  0  0  0  0
    4.2328  -10.9911    0.0000 C   0  0  0  0  0  0  0  0  0  0  0  0
    3.4123  -11.0773    0.0000 C   0  0  0  0  0  0  0  0  0  0  0  0
    2.9274  -10.4099    0.0000 C   0  0  0  0  0  0  0  0  0  0  0  0
    3.2629   -9.6562    0.0000 C   0  0  0  0  0  0  0  0  0  0  0  0
    5.5156   -4.2207    0.0000 C   0  0  2  0  0  0  0  0  0  0  0  0
    6.2301   -4.6332    0.0000 N   0  0  0  0  0  0  0  0  0  0  0  0
    6.9445   -4.2207    0.0000 C   0  0  0  0  0  0  0  0  0  0  0  0
    6.9445   -3.3957    0.0000 O   0  0  0  0  0  0  0  0  0  0  0  0
    7.6590   -4.6332    0.0000 C   0  0  0  0  0  0  0  0  0  0  0  0
    7.6590   -5.4582    0.0000 N   0  0  0  0  0  0  0  0  0  0  0  0
    5.5156   -3.3957    0.0000 C   0  0  0  0  0  0  0  0  0  0  0  0
    6.2301   -2.9832    0.0000 O   0  0  0  0  0  0  0  0  0  0  0  0
    4.8011   -2.9832    0.0000 O   0  0  0  0  0  0  0  0  0  0  0  0
  2  1  1  1  0  0  0
  2  3  1  0  0  0  0
  3  4  1  0  0  0  0
  5  4  1  6  0  0  0
  5  6  1  0  0  0  0
  6  7  1  0  0  0  0
  7  8  1  0  0  0  0
  9  8  1  0  0  0  0
  5  9  1  0  0  0  0
  9 10  1  6  0  0  0
 10 11  1  0  0  0  0
 11 12  2  0  0  0  0
 11 13  1  0  0  0  0
 13 14  1  0  0  0  0
 14 15  1  0  0  0  0
 14 16  1  0  0  0  0
 14 17  1  0  0  0  0
  7 18  1  0  0  0  0
 18 19  2  0  0  0  0
 18 20  1  0  0  0  0
 20 21  1  0  0  0  0
 21 22  1  0  0  0  0
 22 23  2  0  0  0  0
 23 24  1  0  0  0  0
 24 25  2  0  0  0  0
 25 26  1  0  0  0  0
 26 27  2  0  0  0  0
 22 27  1  0  0  0  0
  2 28  1  0  0  0  0
 28 29  1  1  0  0  0
 29 30  1  0  0  0  0
 30 31  2  0  0  0  0
 30 32  1  0  0  0  0
 32 33  1  0  0  0  0
 28 34  1  0  0  0  0
 34 35  1  0  0  0  0
 34 36  2  0  0  0  0
M  END
> <ID>
CPD_4380

$$$$
CPD_4385
  Mrv1822 09091914012D          

 18 18  0  0  0  0            999 V2000
   -0.7145   -1.2375    0.0000 C   0  0  0  0  0  0  0  0  0  0  0  0
    0.0000   -1.6500    0.0000 C   0  0  0  0  0  0  0  0  0  0  0  0
    0.7145   -2.0625    0.0000 C   0  0  0  0  0  0  0  0  0  0  0  0
   -0.4125   -2.3645    0.0000 C   0  0  0  0  0  0  0  0  0  0  0  0
    0.4125   -0.9355    0.0000 N   0  0  0  0  0  0  0  0  0  0  0  0
    1.2375   -0.9355    0.0000 C   0  0  0  0  0  0  0  0  0  0  0  0
    1.6500   -1.6500    0.0000 C   0  0  0  0  0  0  0  0  0  0  0  0
    2.4750   -1.6500    0.0000 C   0  0  0  0  0  0  0  0  0  0  0  0
    2.8875   -2.3645    0.0000 O   0  0  0  0  0  0  0  0  0  0  0  0
    0.0000   -0.2211    0.0000 C   0  0  0  0  0  0  0  0  0  0  0  0
   -0.8250   -0.2211    0.0000 C   0  0  0  0  0  0  0  0  0  0  0  0
   -1.2375    0.4934    0.0000 C   0  0  0  0  0  0  0  0  0  0  0  0
   -2.0625    0.4934    0.0000 F   0  0  0  0  0  0  0  0  0  0  0  0
   -0.8250    1.2079    0.0000 C   0  0  0  0  0  0  0  0  0  0  0  0
   -1.2375    1.9224    0.0000 N   0  0  0  0  0  0  0  0  0  0  0  0
    0.0000    1.2079    0.0000 C   0  0  0  0  0  0  0  0  0  0  0  0
    0.4125    0.4934    0.0000 C   0  0  0  0  0  0  0  0  0  0  0  0
    1.2375    0.4934    0.0000 F   0  0  0  0  0  0  0  0  0  0  0  0
  1  2  1  0  0  0  0
  2  3  1  0  0  0  0
  2  4  1  0  0  0  0
  2  5  1  0  0  0  0
  5  6  1  0  0  0  0
  6  7  1  0  0  0  0
  7  8  1  0  0  0  0
  8  9  1  0  0  0  0
  5 10  1  0  0  0  0
 10 11  2  0  0  0  0
 11 12  1  0  0  0  0
 12 13  1  0  0  0  0
 12 14  2  0  0  0  0
 14 15  1  0  0  0  0
 14 16  1  0  0  0  0
 16 17  2  0  0  0  0
 10 17  1  0  0  0  0
 17 18  1  0  0  0  0
M  END
> <ID>
CPD_4385

$$$$
CPD_4390
  Mrv1822 09091914012D          

 20 20  0  0  0  0            999 V2000
    0.0000    0.0000    0.0000 C   0  0  0  0  0  0  0  0  0  0  0  0
    0.7145   -0.4125    0.0000 O   0  0  0  0  0  0  0  0  0  0  0  0
    0.7145   -1.2375    0.0000 C   0  0  0  0  0  0  0  0  0  0  0  0
    0.0000   -1.6500    0.0000 O   0  0  0  0  0  0  0  0  0  0  0  0
    1.4289   -1.6500    0.0000 C   0  0  0  0  0  0  0  0  0  0  0  0
    1.0164   -2.3645    0.0000 C   0  0  0  0  0  0  0  0  0  0  0  0
    1.8414   -0.9355    0.0000 C   0  0  0  0  0  0  0  0  0  0  0  0
    2.1434   -2.0625    0.0000 N   0  0  0  0  0  0  0  0  0  0  0  0
    2.8579   -1.6500    0.0000 C   0  0  0  0  0  0  0  0  0  0  0  0
    2.8579   -0.8250    0.0000 C   0  0  0  0  0  0  0  0  0  0  0  0
    3.5724   -2.0625    0.0000 O   0  0  0  0  0  0  0  0  0  0  0  0
    2.1434   -2.8875    0.0000 C   0  0  0  0  0  0  0  0  0  0  0  0
    2.8579   -3.3000    0.0000 C   0  0  0  0  0  0  0  0  0  0  0  0
    2.8579   -4.1250    0.0000 C   0  0  0  0  0  0  0  0  0  0  0  0
    3.5724   -4.5375    0.0000 F   0  0  0  0  0  0  0  0  0  0  0  0
    2.1434   -4.5375    0.0000 C   0  0  0  0  0  0  0  0  0  0  0  0
    2.1434   -5.3625    0.0000 N   0  0  0  0  0  0  0  0  0  0  0  0
    1.4289   -4.1250    0.0000 C   0  0  0  0  0  0  0  0  0  0  0  0
    1.4289   -3.3000    0.0000 C   0  0  0  0  0  0  0  0  0  0  0  0
    0.7145   -2.8875    0.0000 F   0  0  0  0  0  0  0  0  0  0  0  0
  1  2  1  0  0  0  0
  2  3  1  0  0  0  0
  3  4  2  0  0  0  0
  3  5  1  0  0  0  0
  5  6  1  0  0  0  0
  5  7  1  0  0  0  0
  5  8  1  0  0  0  0
  8  9  1  0  0  0  0
  9 10  1  0  0  0  0
  9 11  2  0  0  0  0
  8 12  1  0  0  0  0
 12 13  2  0  0  0  0
 13 14  1  0  0  0  0
 14 15  1  0  0  0  0
 14 16  2  0  0  0  0
 16 17  1  0  0  0  0
 16 18  1  0  0  0  0
 18 19  2  0  0  0  0
 12 19  1  0  0  0  0
 19 20  1  0  0  0  0
M  END
> <ID>
CPD_4390

$$$$
CPD_4395
  Mrv1822 09091914012D          

 24 26  0  0  0  0            999 V2000
   -4.6721   -3.3945    0.0000 C   0  0  0  0  0  0  0  0  0  0  0  0
   -4.0046   -2.9095    0.0000 O   0  0  0  0  0  0  0  0  0  0  0  0
   -4.0909   -2.0891    0.0000 C   0  0  0  0  0  0  0  0  0  0  0  0
   -4.8445   -1.7535    0.0000 O   0  0  0  0  0  0  0  0  0  0  0  0
   -3.4234   -1.6041    0.0000 C   0  0  0  0  0  0  0  0  0  0  0  0
   -3.5097   -0.7837    0.0000 C   0  0  0  0  0  0  0  0  0  0  0  0
   -4.2633   -0.4481    0.0000 C   0  0  0  0  0  0  0  0  0  0  0  0
   -2.8422   -0.2987    0.0000 C   0  0  0  0  0  0  0  0  0  0  0  0
   -2.9285    0.5218    0.0000 C   0  0  0  0  0  0  0  0  0  0  0  0
   -2.0886   -0.6343    0.0000 C   0  0  0  0  0  0  0  0  0  0  0  0
   -1.4211   -0.1494    0.0000 O   0  0  0  0  0  0  0  0  0  0  0  0
   -0.6674   -0.4849    0.0000 C   0  0  0  0  0  0  0  0  0  0  0  0
   -0.0000    0.0000    0.0000 C   0  0  0  0  0  0  0  0  0  0  0  0
   -0.0000    0.8250    0.0000 C   0  0  0  0  0  0  0  0  0  0  0  0
    0.7846    1.0799    0.0000 O   0  0  0  0  0  0  0  0  0  0  0  0
    1.2695    0.4125    0.0000 C   0  0  0  0  0  0  0  0  0  0  0  0
    0.7846   -0.2549    0.0000 C   0  0  0  0  0  0  0  0  0  0  0  0
    1.6820    1.1270    0.0000 C   0  0  0  0  0  0  0  0  0  0  0  0
    2.5070    1.1270    0.0000 C   0  0  0  0  0  0  0  0  0  0  0  0
    2.9195    0.4125    0.0000 N   0  0  0  0  0  0  0  0  0  0  0  0
    2.5070   -0.3020    0.0000 C   0  0  0  0  0  0  0  0  0  0  0  0
    1.6820   -0.3020    0.0000 C   0  0  0  0  0  0  0  0  0  0  0  0
   -2.0023   -1.4548    0.0000 C   0  0  0  0  0  0  0  0  0  0  0  0
   -2.6698   -1.9397    0.0000 C   0  0  0  0  0  0  0  0  0  0  0  0
  1  2  1  0  0  0  0
  2  3  1  0  0  0  0
  3  4  2  0  0  0  0
  3  5  1  0  0  0  0
  5  6  2  0  0  0  0
  6  7  1  0  0  0  0
  6  8  1  0  0  0  0
  8  9  1  0  0  0  0
  8 10  2  0  0  0  0
 10 11  1  0  0  0  0
 11 12  1  0  0  0  0
 12 13  1  0  0  0  0
 13 14  1  0  0  0  0
 14 15  1  0  0  0  0
 15 16  1  0  0  0  0
 16 17  1  0  0  0  0
 13 17  1  0  0  0  0
 16 18  1  0  0  0  0
 18 19  1  0  0  0  0
 19 20  1  0  0  0  0
 20 21  1  0  0  0  0
 21 22  1  0  0  0  0
 16 22  1  0  0  0  0
 10 23  1  0  0  0  0
 23 24  2  0  0  0  0
  5 24  1  0  0  0  0
M  END
> <ID>
CPD_4395

$$$$
CPD_4400
  Mrv1822 09091914012D          

 25 28  0  0  0  0            999 V2000
   -0.6674   -0.4849    0.0000 C   0  0  0  0  0  0  0  0  0  0  0  0
   -1.4211   -0.1494    0.0000 N   0  0  0  0  0  0  0  0  0  0  0  0
   -2.0886   -0.6343    0.0000 C   0  0  0  0  0  0  0  0  0  0  0  0
   -2.0023   -1.4548    0.0000 C   0  0  0  0  0  0  0  0  0  0  0  0
   -1.2486   -1.7903    0.0000 N   0  0  0  0  0  0  0  0  0  0  0  0
   -1.1624   -2.6108    0.0000 C   0  0  0  0  0  0  0  0  0  0  0  0
   -0.4087   -2.9464    0.0000 C   0  0  0  0  0  0  0  0  0  0  0  0
   -0.3225   -3.7668    0.0000 C   0  0  0  0  0  0  0  0  0  0  0  0
   -0.9899   -4.2518    0.0000 C   0  0  0  0  0  0  0  0  0  0  0  0
   -1.7436   -3.9162    0.0000 C   0  0  0  0  0  0  0  0  0  0  0  0
   -1.8298   -3.0957    0.0000 C   0  0  0  0  0  0  0  0  0  0  0  0
   -2.6698   -1.9397    0.0000 C   0  0  0  0  0  0  0  0  0  0  0  0
   -3.4234   -1.6041    0.0000 C   0  0  0  0  0  0  0  0  0  0  0  0
   -3.5097   -0.7837    0.0000 C   0  0  0  0  0  0  0  0  0  0  0  0
   -2.8422   -0.2987    0.0000 N   0  0  0  0  0  0  0  0  0  0  0  0
   -0.0000    0.0000    0.0000 C   0  0  0  0  0  0  0  0  0  0  0  0
   -0.0000    0.8250    0.0000 C   0  0  0  0  0  0  0  0  0  0  0  0
    0.7846    1.0799    0.0000 O   0  0  0  0  0  0  0  0  0  0  0  0
    1.2695    0.4125    0.0000 C   0  0  0  0  0  0  0  0  0  0  0  0
    0.7846   -0.2549    0.0000 C   0  0  0  0  0  0  0  0  0  0  0  0
    1.6820    1.1270    0.0000 C   0  0  0  0  0  0  0  0  0  0  0  0
    2.5070    1.1270    0.0000 C   0  0  0  0  0  0  0  0  0  0  0  0
    2.9195    0.4125    0.0000 N   0  0  0  0  0  0  0  0  0  0  0  0
    2.5070   -0.3020    0.0000 C   0  0  0  0  0  0  0  0  0  0  0  0
    1.6820   -0.3020    0.0000 C   0  0  0  0  0  0  0  0  0  0  0  0
  1  2  1  0  0  0  0
  2  3  1  0  0  0  0
  3  4  2  0  0  0  0
  4  5  1  0  0  0  0
  5  6  1  0  0  0  0
  6  7  1  0  0  0  0
  7  8  1  0  0  0  0
  8  9  1  0  0  0  0
  9 10  1  0  0  0  0
 10 11  1  0  0  0  0
  6 11  1  0  0  0  0
  4 12  1  0  0  0  0
 12 13  2  0  0  0  0
 13 14  1  0  0  0  0
 14 15  2  0  0  0  0
  3 15  1  0  0  0  0
  1 16  1  0  0  0  0
 16 17  1  0  0  0  0
 17 18  1  0  0  0  0
 18 19  1  0  0  0  0
 19 20  1  0  0  0  0
 16 20  1  0  0  0  0
 19 21  1  0  0  0  0
 21 22  1  0  0  0  0
 22 23  1  0  0  0  0
 23 24  1  0  0  0  0
 24 25  1  0  0  0  0
 19 25  1  0  0  0  0
M  END
> <ID>
CPD_4400

$$$$
CPD_4405
  Mrv1822 09091914012D          

 23 26  0  0  0  0            999 V2000
    3.3629   -1.5105    0.0000 N   0  0  0  0  0  0  0  0  0  0  0  0
    2.6484   -1.9230    0.0000 C   0  0  0  0  0  0  0  0  0  0  0  0
    2.6484   -2.7480    0.0000 C   0  0  0  0  0  0  0  0  0  0  0  0
    1.9339   -3.1605    0.0000 C   0  0  0  0  0  0  0  0  0  0  0  0
    1.2195   -2.7480    0.0000 C   0  0  0  0  0  0  0  0  0  0  0  0
    1.2195   -1.9230    0.0000 C   0  0  0  0  0  0  0  0  0  0  0  0
    1.9339   -1.5105    0.0000 C   0  0  0  0  0  0  0  0  0  0  0  0
    1.9339   -0.6855    0.0000 N   0  0  0  0  0  0  0  0  0  0  0  0
    2.6014   -0.2006    0.0000 C   0  0  0  0  0  0  0  0  0  0  0  0
    3.4084   -0.3721    0.0000 C   0  0  0  0  0  0  0  0  0  0  0  0
    3.9604    0.2410    0.0000 C   0  0  0  0  0  0  0  0  0  0  0  0
    3.7054    1.0256    0.0000 C   0  0  0  0  0  0  0  0  0  0  0  0
    4.2575    1.6387    0.0000 Br  0  0  0  0  0  0  0  0  0  0  0  0
    2.8985    1.1971    0.0000 C   0  0  0  0  0  0  0  0  0  0  0  0
    2.3464    0.5840    0.0000 C   0  0  0  0  0  0  0  0  0  0  0  0
    1.5214    0.5840    0.0000 C   0  0  0  0  0  0  0  0  0  0  0  0
    1.2665   -0.2006    0.0000 C   0  0  0  0  0  0  0  0  0  0  0  0
    0.4595   -0.3721    0.0000 C   0  0  0  0  0  0  0  0  0  0  0  0
   -0.0925    0.2410    0.0000 C   0  0  0  0  0  0  0  0  0  0  0  0
    0.1624    1.0256    0.0000 C   0  0  0  0  0  0  0  0  0  0  0  0
    0.9694    1.1971    0.0000 C   0  0  0  0  0  0  0  0  0  0  0  0
    0.5050   -3.1605    0.0000 C   0  0  0  0  0  0  0  0  0  0  0  0
   -0.2095   -3.5730    0.0000 N   0  0  0  0  0  0  0  0  0  0  0  0
  1  2  1  0  0  0  0
  2  3  2  0  0  0  0
  3  4  1  0  0  0  0
  4  5  2  0  0  0  0
  5  6  1  0  0  0  0
  6  7  2  0  0  0  0
  2  7  1  0  0  0  0
  7  8  1  0  0  0  0
  8  9  1  0  0  0  0
  9 10  2  0  0  0  0
 10 11  1  0  0  0  0
 11 12  2  0  0  0  0
 12 13  1  0  0  0  0
 12 14  1  0  0  0  0
 14 15  2  0  0  0  0
  9 15  1  0  0  0  0
 15 16  1  0  0  0  0
 16 17  2  0  0  0  0
  8 17  1  0  0  0  0
 17 18  1  0  0  0  0
 18 19  2  0  0  0  0
 19 20  1  0  0  0  0
 20 21  2  0  0  0  0
 16 21  1  0  0  0  0
  5 22  1  0  0  0  0
 22 23  3  0  0  0  0
M  END
> <ID>
CPD_4405

$$$$
CPD_4410
  Mrv1822 09091914012D          

 24 25  0  0  0  0            999 V2000
    1.0468   -5.8331    0.0000 C   0  0  0  0  0  0  0  0  0  0  0  0
    1.7613   -5.4206    0.0000 O   0  0  0  0  0  0  0  0  0  0  0  0
    2.4757   -5.8331    0.0000 C   0  0  0  0  0  0  0  0  0  0  0  0
    2.4757   -6.6581    0.0000 O   0  0  0  0  0  0  0  0  0  0  0  0
    3.1902   -5.4206    0.0000 C   0  0  0  0  0  0  0  0  0  0  0  0
    3.9047   -5.8331    0.0000 C   0  0  0  0  0  0  0  0  0  0  0  0
    4.6191   -5.4206    0.0000 C   0  0  0  0  0  0  0  0  0  0  0  0
    4.7054   -4.6001    0.0000 N   0  0  0  0  0  0  0  0  0  0  0  0
    5.5124   -4.4286    0.0000 N   0  0  0  0  0  0  0  0  0  0  0  0
    5.9249   -5.1431    0.0000 C   0  0  0  0  0  0  0  0  0  0  0  0
    6.7453   -5.2293    0.0000 O   0  0  0  0  0  0  0  0  0  0  0  0
    7.2303   -4.5619    0.0000 C   0  0  0  0  0  0  0  0  0  0  0  0
    8.0507   -4.6481    0.0000 C   0  0  0  0  0  0  0  0  0  0  0  0
    8.5357   -3.9807    0.0000 C   0  0  0  0  0  0  0  0  0  0  0  0
    9.3561   -4.0669    0.0000 C   0  0  0  0  0  0  0  0  0  0  0  0
    9.8411   -3.3995    0.0000 F   0  0  0  0  0  0  0  0  0  0  0  0
    9.6917   -4.8206    0.0000 C   0  0  0  0  0  0  0  0  0  0  0  0
    9.2068   -5.4880    0.0000 C   0  0  0  0  0  0  0  0  0  0  0  0
    8.3863   -5.4018    0.0000 C   0  0  0  0  0  0  0  0  0  0  0  0
    6.8947   -3.8082    0.0000 C   0  0  0  0  0  0  0  0  0  0  0  0
    6.5591   -3.0545    0.0000 F   0  0  0  0  0  0  0  0  0  0  0  0
    7.6484   -3.4726    0.0000 F   0  0  0  0  0  0  0  0  0  0  0  0
    6.1410   -4.1437    0.0000 F   0  0  0  0  0  0  0  0  0  0  0  0
    5.3728   -5.7562    0.0000 N   0  0  0  0  0  0  0  0  0  0  0  0
  1  2  1  0  0  0  0
  2  3  1  0  0  0  0
  3  4  2  0  0  0  0
  3  5  1  0  0  0  0
  5  6  1  0  0  0  0
  6  7  1  0  0  0  0
  7  8  2  0  0  0  0
  8  9  1  0  0  0  0
  9 10  1  0  0  0  0
 10 11  1  0  0  0  0
 11 12  1  0  0  0  0
 12 13  1  0  0  0  0
 13 14  2  0  0  0  0
 14 15  1  0  0  0  0
 15 16  1  0  0  0  0
 15 17  2  0  0  0  0
 17 18  1  0  0  0  0
 18 19  2  0  0  0  0
 13 19  1  0  0  0  0
 12 20  1  0  0  0  0
 20 21  1  0  0  0  0
 20 22  1  0  0  0  0
 20 23  1  0  0  0  0
 10 24  2  0  0  0  0
  7 24  1  0  0  0  0
M  END
> <ID>
CPD_4410

$$$$
CPD_4415
  Mrv1822 09091914012D          

 26 28  0  0  0  0            999 V2000
    1.5189   -0.1246    0.0000 C   0  0  0  0  0  0  0  0  0  0  0  0
    0.9058   -0.6767    0.0000 N   0  0  0  0  0  0  0  0  0  0  0  0
    0.9920   -1.4971    0.0000 C   0  0  0  0  0  0  0  0  0  0  0  0
    0.2383   -1.8327    0.0000 C   0  0  0  0  0  0  0  0  0  0  0  0
   -0.3137   -1.2196    0.0000 C   0  0  0  0  0  0  0  0  0  0  0  0
   -1.1387   -1.2196    0.0000 C   0  0  0  0  0  0  0  0  0  0  0  0
   -1.5512   -0.5051    0.0000 C   0  0  0  0  0  0  0  0  0  0  0  0
   -1.1387    0.2093    0.0000 C   0  0  0  0  0  0  0  0  0  0  0  0
   -0.3137    0.2093    0.0000 C   0  0  0  0  0  0  0  0  0  0  0  0
    0.0988    0.9238    0.0000 Cl  0  0  0  0  0  0  0  0  0  0  0  0
    0.0988   -0.5051    0.0000 C   0  0  0  0  0  0  0  0  0  0  0  0
    1.7065   -1.9096    0.0000 C   0  0  0  0  0  0  0  0  0  0  0  0
    2.4209   -1.4971    0.0000 O   0  0  0  0  0  0  0  0  0  0  0  0
    1.7065   -2.7346    0.0000 O   0  0  0  0  0  0  0  0  0  0  0  0
    2.4209   -3.1471    0.0000 C   0  0  0  0  0  0  0  0  0  0  0  0
    2.4209   -3.9721    0.0000 C   0  0  0  0  0  0  0  0  0  0  0  0
    3.1354   -4.3846    0.0000 C   0  0  0  0  0  0  0  0  0  0  0  0
    3.1354   -5.2096    0.0000 C   0  0  0  0  0  0  0  0  0  0  0  0
    3.8499   -5.6221    0.0000 F   0  0  0  0  0  0  0  0  0  0  0  0
    2.4209   -5.6221    0.0000 C   0  0  0  0  0  0  0  0  0  0  0  0
    1.7065   -5.2096    0.0000 C   0  0  0  0  0  0  0  0  0  0  0  0
    1.7065   -4.3846    0.0000 C   0  0  0  0  0  0  0  0  0  0  0  0
    3.1354   -2.7346    0.0000 C   0  0  0  0  0  0  0  0  0  0  0  0
    3.5479   -3.4491    0.0000 F   0  0  0  0  0  0  0  0  0  0  0  0
    2.7229   -2.0202    0.0000 F   0  0  0  0  0  0  0  0  0  0  0  0
    3.8499   -2.3221    0.0000 F   0  0  0  0  0  0  0  0  0  0  0  0
  1  2  1  0  0  0  0
  2  3  1  0  0  0  0
  3  4  2  0  0  0  0
  4  5  1  0  0  0  0
  5  6  2  0  0  0  0
  6  7  1  0  0  0  0
  7  8  2  0  0  0  0
  8  9  1  0  0  0  0
  9 10  1  0  0  0  0
  9 11  2  0  0  0  0
  2 11  1  0  0  0  0
  5 11  1  0  0  0  0
  3 12  1  0  0  0  0
 12 13  2  0  0  0  0
 12 14  1  0  0  0  0
 14 15  1  0  0  0  0
 15 16  1  0  0  0  0
 16 17  2  0  0  0  0
 17 18  1  0  0  0  0
 18 19  1  0  0  0  0
 18 20  2  0  0  0  0
 20 21  1  0  0  0  0
 21 22  2  0  0  0  0
 16 22  1  0  0  0  0
 15 23  1  0  0  0  0
 23 24  1  0  0  0  0
 23 25  1  0  0  0  0
 23 26  1  0  0  0  0
M  END
> <ID>
CPD_4415

$$$$
CPD_4420
  Mrv1822 09091914012D          

 23 25  0  0  0  0            999 V2000
   -6.0166   -1.7174    0.0000 Br  0  0  0  0  0  0  0  0  0  0  0  0
   -5.1961   -1.6312    0.0000 C   0  0  0  0  0  0  0  0  0  0  0  0
   -4.8605   -0.8775    0.0000 C   0  0  0  0  0  0  0  0  0  0  0  0
   -4.0401   -0.7913    0.0000 C   0  0  0  0  0  0  0  0  0  0  0  0
   -3.5551   -1.4587    0.0000 C   0  0  0  0  0  0  0  0  0  0  0  0
   -3.8907   -2.2124    0.0000 N   0  0  0  0  0  0  0  0  0  0  0  0
   -4.7112   -2.2986    0.0000 C   0  0  0  0  0  0  0  0  0  0  0  0
   -2.7346   -1.3725    0.0000 N   0  0  0  0  0  0  0  0  0  0  0  0
   -2.3221   -0.6580    0.0000 C   0  0  0  0  0  0  0  0  0  0  0  0
   -1.5152   -0.8295    0.0000 C   0  0  0  0  0  0  0  0  0  0  0  0
   -1.4289   -1.6500    0.0000 C   0  0  0  0  0  0  0  0  0  0  0  0
   -2.1826   -1.9856    0.0000 C   0  0  0  0  0  0  0  0  0  0  0  0
   -0.7145   -2.0625    0.0000 N   0  0  0  0  0  0  0  0  0  0  0  0
    0.0000   -1.6500    0.0000 C   0  0  0  0  0  0  0  0  0  0  0  0
    0.7145   -2.0625    0.0000 C   0  0  0  0  0  0  0  0  0  0  0  0
    1.4289   -1.6500    0.0000 C   0  0  0  0  0  0  0  0  0  0  0  0
    2.1434   -1.2375    0.0000 N   0  0  0  0  0  0  0  0  0  0  0  0
   -0.7145   -2.8875    0.0000 C   0  0  0  0  0  0  0  0  0  0  0  0
    0.0000   -3.3000    0.0000 C   0  0  0  0  0  0  0  0  0  0  0  0
    0.0000   -4.1250    0.0000 C   0  0  0  0  0  0  0  0  0  0  0  0
   -0.7145   -4.5375    0.0000 C   0  0  0  0  0  0  0  0  0  0  0  0
   -1.4289   -4.1250    0.0000 C   0  0  0  0  0  0  0  0  0  0  0  0
   -1.4289   -3.3000    0.0000 C   0  0  0  0  0  0  0  0  0  0  0  0
  1  2  1  0  0  0  0
  2  3  2  0  0  0  0
  3  4  1  0  0  0  0
  4  5  2  0  0  0  0
  5  6  1  0  0  0  0
  6  7  2  0  0  0  0
  2  7  1  0  0  0  0
  5  8  1  0  0  0  0
  8  9  1  0  0  0  0
  9 10  1  0  0  0  0
 10 11  1  0  0  0  0
 11 12  1  0  0  0  0
  8 12  1  0  0  0  0
 11 13  1  0  0  0  0
 13 14  1  0  0  0  0
 14 15  1  0  0  0  0
 15 16  1  0  0  0  0
 16 17  3  0  0  0  0
 13 18  1  0  0  0  0
 18 19  2  0  0  0  0
 19 20  1  0  0  0  0
 20 21  2  0  0  0  0
 21 22  1  0  0  0  0
 22 23  2  0  0  0  0
 18 23  1  0  0  0  0
M  END
> <ID>
CPD_4420

$$$$
CPD_4425
  Mrv1822 09091914012D          

 27 29  0  0  0  0            999 V2000
    2.9263   -6.7860    0.0000 N   0  0  0  0  0  0  0  0  0  0  0  0
    2.5138   -6.0716    0.0000 C   0  0  0  0  0  0  0  0  0  0  0  0
    1.6888   -6.0716    0.0000 C   0  0  0  0  0  0  0  0  0  0  0  0
    1.2763   -5.3571    0.0000 C   0  0  0  0  0  0  0  0  0  0  0  0
    1.6888   -4.6426    0.0000 C   0  0  0  0  0  0  0  0  0  0  0  0
    2.5138   -4.6426    0.0000 C   0  0  0  0  0  0  0  0  0  0  0  0
    2.9263   -5.3571    0.0000 C   0  0  0  0  0  0  0  0  0  0  0  0
    1.2763   -3.9282    0.0000 C   0  0  0  0  0  0  0  0  0  0  0  0
    0.4513   -3.9282    0.0000 O   0  0  0  0  0  0  0  0  0  0  0  0
    1.6888   -3.2137    0.0000 N   0  0  0  0  0  0  0  0  0  0  0  0
    2.5138   -3.2137    0.0000 C   0  0  0  0  0  0  0  0  0  0  0  0
    2.9263   -3.9282    0.0000 C   0  0  0  0  0  0  0  0  0  0  0  0
    3.7513   -3.9282    0.0000 C   0  0  0  0  0  0  0  0  0  0  0  0
    4.1638   -3.2137    0.0000 O   0  0  0  0  0  0  0  0  0  0  0  0
    4.1638   -4.6426    0.0000 O   0  0  0  0  0  0  0  0  0  0  0  0
    1.2763   -2.4992    0.0000 C   0  0  0  0  0  0  0  0  0  0  0  0
    0.4559   -2.4130    0.0000 C   0  0  0  0  0  0  0  0  0  0  0  0
    0.2843   -1.6060    0.0000 C   0  0  0  0  0  0  0  0  0  0  0  0
    0.9988   -1.1935    0.0000 N   0  0  0  0  0  0  0  0  0  0  0  0
    1.6119   -1.7455    0.0000 C   0  0  0  0  0  0  0  0  0  0  0  0
    1.0850   -0.3730    0.0000 C   0  0  0  0  0  0  0  0  0  0  0  0
    0.4176    0.1119    0.0000 C   0  0  0  0  0  0  0  0  0  0  0  0
    0.5038    0.9324    0.0000 C   0  0  0  0  0  0  0  0  0  0  0  0
    1.2575    1.2679    0.0000 C   0  0  0  0  0  0  0  0  0  0  0  0
    1.3437    2.0884    0.0000 Br  0  0  0  0  0  0  0  0  0  0  0  0
    1.9249    0.7830    0.0000 C   0  0  0  0  0  0  0  0  0  0  0  0
    1.8387   -0.0375    0.0000 N   0  0  0  0  0  0  0  0  0  0  0  0
  1  2  1  0  0  0  0
  2  3  2  0  0  0  0
  3  4  1  0  0  0  0
  4  5  2  0  0  0  0
  5  6  1  0  0  0  0
  6  7  2  0  0  0  0
  2  7  1  0  0  0  0
  5  8  1  0  0  0  0
  8  9  2  0  0  0  0
  8 10  1  0  0  0  0
 10 11  1  0  0  0  0
 11 12  1  0  0  0  0
 12 13  1  0  0  0  0
 13 14  1  0  0  0  0
 13 15  2  0  0  0  0
 10 16  1  0  0  0  0
 16 17  1  0  0  0  0
 17 18  1  0  0  0  0
 18 19  1  0  0  0  0
 19 20  1  0  0  0  0
 16 20  1  0  0  0  0
 19 21  1  0  0  0  0
 21 22  2  0  0  0  0
 22 23  1  0  0  0  0
 23 24  2  0  0  0  0
 24 25  1  0  0  0  0
 24 26  1  0  0  0  0
 26 27  2  0  0  0  0
 21 27  1  0  0  0  0
M  END
> <ID>
CPD_4425

$$$$
CPD_4430
  Mrv1822 09091914012D          

 23 26  0  0  0  0            999 V2000
   -1.4534   -0.6979    0.0000 C   0  0  0  0  0  0  0  0  0  0  0  0
   -0.6284   -0.6979    0.0000 C   0  0  0  0  0  0  0  0  0  0  0  0
   -0.1435   -1.3654    0.0000 N   0  0  0  0  0  0  0  0  0  0  0  0
    0.6411   -1.1104    0.0000 C   0  0  0  0  0  0  0  0  0  0  0  0
    0.6411   -0.2854    0.0000 C   0  0  0  0  0  0  0  0  0  0  0  0
   -0.1435   -0.0305    0.0000 S   0  0  0  0  0  0  0  0  0  0  0  0
    1.3556    0.1271    0.0000 C   0  0  0  0  0  0  0  0  0  0  0  0
    2.0701   -0.2854    0.0000 C   0  0  0  0  0  0  0  0  0  0  0  0
    2.0701   -1.1104    0.0000 C   0  0  0  0  0  0  0  0  0  0  0  0
    2.7845   -1.5229    0.0000 N   0  0  0  0  0  0  0  0  0  0  0  0
    3.4990   -1.1104    0.0000 C   0  0  0  0  0  0  0  0  0  0  0  0
    3.5852   -0.2900    0.0000 C   0  0  0  0  0  0  0  0  0  0  0  0
    4.3922   -0.1184    0.0000 C   0  0  0  0  0  0  0  0  0  0  0  0
    4.8047   -0.8329    0.0000 N   0  0  0  0  0  0  0  0  0  0  0  0
    4.2527   -1.4460    0.0000 C   0  0  0  0  0  0  0  0  0  0  0  0
    5.6252   -0.9191    0.0000 C   0  0  0  0  0  0  0  0  0  0  0  0
    6.1101   -0.2517    0.0000 C   0  0  0  0  0  0  0  0  0  0  0  0
    6.9306   -0.3379    0.0000 C   0  0  0  0  0  0  0  0  0  0  0  0
    7.2661   -1.0916    0.0000 C   0  0  0  0  0  0  0  0  0  0  0  0
    8.0866   -1.1778    0.0000 Br  0  0  0  0  0  0  0  0  0  0  0  0
    6.7812   -1.7591    0.0000 C   0  0  0  0  0  0  0  0  0  0  0  0
    5.9607   -1.6728    0.0000 N   0  0  0  0  0  0  0  0  0  0  0  0
    1.3556   -1.5229    0.0000 C   0  0  0  0  0  0  0  0  0  0  0  0
  1  2  1  0  0  0  0
  2  3  2  0  0  0  0
  3  4  1  0  0  0  0
  4  5  2  0  0  0  0
  5  6  1  0  0  0  0
  2  6  1  0  0  0  0
  5  7  1  0  0  0  0
  7  8  2  0  0  0  0
  8  9  1  0  0  0  0
  9 10  1  0  0  0  0
 10 11  1  0  0  0  0
 11 12  1  0  0  0  0
 12 13  1  0  0  0  0
 13 14  1  0  0  0  0
 14 15  1  0  0  0  0
 11 15  1  0  0  0  0
 14 16  1  0  0  0  0
 16 17  2  0  0  0  0
 17 18  1  0  0  0  0
 18 19  2  0  0  0  0
 19 20  1  0  0  0  0
 19 21  1  0  0  0  0
 21 22  2  0  0  0  0
 16 22  1  0  0  0  0
  9 23  2  0  0  0  0
  4 23  1  0  0  0  0
M  END
> <ID>
CPD_4430

$$$$
CPD_4435
  Mrv1822 09091914012D          

 21 23  0  0  0  0            999 V2000
   -0.2764   -1.8050    0.0000 C   0  0  0  0  0  0  0  0  0  0  0  0
   -0.2764   -2.6300    0.0000 O   0  0  0  0  0  0  0  0  0  0  0  0
    0.4380   -3.0425    0.0000 C   0  0  0  0  0  0  0  0  0  0  0  0
    1.1525   -2.6300    0.0000 O   0  0  0  0  0  0  0  0  0  0  0  0
    0.4380   -3.8675    0.0000 C   0  0  0  0  0  0  0  0  0  0  0  0
    1.1055   -4.3524    0.0000 C   0  0  0  0  0  0  0  0  0  0  0  0
    0.8505   -5.1370    0.0000 C   0  0  0  0  0  0  0  0  0  0  0  0
    1.3355   -5.8045    0.0000 N   0  0  0  0  0  0  0  0  0  0  0  0
    0.9999   -6.5581    0.0000 C   0  0  0  0  0  0  0  0  0  0  0  0
    1.4124   -7.2726    0.0000 N   0  0  0  0  0  0  0  0  0  0  0  0
    0.8604   -7.8857    0.0000 C   0  0  0  0  0  0  0  0  0  0  0  0
    0.1067   -7.5502    0.0000 N   0  0  0  0  0  0  0  0  0  0  0  0
    0.1929   -6.7297    0.0000 N   0  0  0  0  0  0  0  0  0  0  0  0
    1.0319   -8.6927    0.0000 C   0  0  0  0  0  0  0  0  0  0  0  0
    1.8165   -8.9476    0.0000 C   0  0  0  0  0  0  0  0  0  0  0  0
    1.9881   -9.7546    0.0000 C   0  0  0  0  0  0  0  0  0  0  0  0
    1.3750  -10.3066    0.0000 C   0  0  0  0  0  0  0  0  0  0  0  0
    0.5903  -10.0517    0.0000 N   0  0  0  0  0  0  0  0  0  0  0  0
    0.4188   -9.2447    0.0000 C   0  0  0  0  0  0  0  0  0  0  0  0
    0.0255   -5.1370    0.0000 C   0  0  0  0  0  0  0  0  0  0  0  0
   -0.2294   -4.3524    0.0000 S   0  0  0  0  0  0  0  0  0  0  0  0
  1  2  1  0  0  0  0
  2  3  1  0  0  0  0
  3  4  2  0  0  0  0
  3  5  1  0  0  0  0
  5  6  2  0  0  0  0
  6  7  1  0  0  0  0
  7  8  1  0  0  0  0
  8  9  1  0  0  0  0
  9 10  2  0  0  0  0
 10 11  1  0  0  0  0
 11 12  2  0  0  0  0
 12 13  1  0  0  0  0
  9 13  1  0  0  0  0
 11 14  1  0  0  0  0
 14 15  2  0  0  0  0
 15 16  1  0  0  0  0
 16 17  2  0  0  0  0
 17 18  1  0  0  0  0
 18 19  2  0  0  0  0
 14 19  1  0  0  0  0
  7 20  2  0  0  0  0
 20 21  1  0  0  0  0
  5 21  1  0  0  0  0
M  END
> <ID>
CPD_4435

$$$$
CPD_4440
  Mrv1822 09091914012D          

 39 43  0  0  0  0            999 V2000
   -3.6791    2.8259    0.0000 C   0  0  0  0  0  0  0  0  0  0  0  0
   -2.9646    2.4134    0.0000 O   0  0  0  0  0  0  0  0  0  0  0  0
   -2.9646    1.5884    0.0000 C   0  0  0  0  0  0  0  0  0  0  0  0
   -2.2501    1.1759    0.0000 C   0  0  0  0  0  0  0  0  0  0  0  0
   -1.5356    1.5884    0.0000 O   0  0  0  0  0  0  0  0  0  0  0  0
   -0.8212    1.1759    0.0000 C   0  0  0  0  0  0  0  0  0  0  0  0
   -0.1067    1.5884    0.0000 C   0  0  0  0  0  0  0  0  0  0  0  0
    0.6078    1.1759    0.0000 C   0  0  0  0  0  0  0  0  0  0  0  0
    0.6078    0.3509    0.0000 C   0  0  0  0  0  0  0  0  0  0  0  0
   -0.1067   -0.0616    0.0000 C   0  0  0  0  0  0  0  0  0  0  0  0
   -0.8212    0.3509    0.0000 C   0  0  0  0  0  0  0  0  0  0  0  0
    1.3222   -0.0616    0.0000 S   0  0  0  0  0  0  0  0  0  0  0  0
    0.9097   -0.7761    0.0000 O   0  0  0  0  0  0  0  0  0  0  0  0
    1.7347    0.6529    0.0000 O   0  0  0  0  0  0  0  0  0  0  0  0
    2.0367   -0.4741    0.0000 N   0  0  0  0  0  0  0  0  0  0  0  0
    2.0367   -1.2991    0.0000 C   0  0  0  0  0  0  0  0  0  0  0  0
    2.7041   -1.7840    0.0000 N   0  0  0  0  0  0  0  0  0  0  0  0
    2.4492   -2.5687    0.0000 C   0  0  0  0  0  0  0  0  0  0  0  0
    1.6242   -2.5687    0.0000 N   0  0  0  0  0  0  0  0  0  0  0  0
    1.3693   -1.7840    0.0000 N   0  0  0  0  0  0  0  0  0  0  0  0
    2.9341   -3.2361    0.0000 C   0  0  0  0  0  0  0  0  0  0  0  0
    3.7546   -3.1499    0.0000 C   0  0  0  0  0  0  0  0  0  0  0  0
    4.2395   -3.8173    0.0000 C   0  0  0  0  0  0  0  0  0  0  0  0
    3.9040   -4.5710    0.0000 C   0  0  0  0  0  0  0  0  0  0  0  0
    3.0835   -4.6572    0.0000 N   0  0  0  0  0  0  0  0  0  0  0  0
    2.5986   -3.9898    0.0000 C   0  0  0  0  0  0  0  0  0  0  0  0
    2.7512   -0.0616    0.0000 C   0  0  0  0  0  0  0  0  0  0  0  0
    2.7512    0.7634    0.0000 C   0  0  0  0  0  0  0  0  0  0  0  0
    3.4656    1.1759    0.0000 C   0  0  0  0  0  0  0  0  0  0  0  0
    4.1801    0.7634    0.0000 C   0  0  0  0  0  0  0  0  0  0  0  0
    4.1801   -0.0616    0.0000 C   0  0  0  0  0  0  0  0  0  0  0  0
    3.4656   -0.4741    0.0000 C   0  0  0  0  0  0  0  0  0  0  0  0
    4.8946   -0.4741    0.0000 C   0  0  0  0  0  0  0  0  0  0  0  0
    4.8946   -1.2991    0.0000 O   0  0  0  0  0  0  0  0  0  0  0  0
    5.6091   -0.0616    0.0000 O   0  0  0  0  0  0  0  0  0  0  0  0
   -2.2501    0.3509    0.0000 C   0  0  0  0  0  0  0  0  0  0  0  0
   -2.9646   -0.0616    0.0000 C   0  0  0  0  0  0  0  0  0  0  0  0
   -3.6791    0.3509    0.0000 C   0  0  0  0  0  0  0  0  0  0  0  0
   -3.6791    1.1759    0.0000 C   0  0  0  0  0  0  0  0  0  0  0  0
  1  2  1  0  0  0  0
  2  3  1  0  0  0  0
  3  4  2  0  0  0  0
  4  5  1  0  0  0  0
  5  6  1  0  0  0  0
  6  7  2  0  0  0  0
  7  8  1  0  0  0  0
  8  9  2  0  0  0  0
  9 10  1  0  0  0  0
 10 11  2  0  0  0  0
  6 11  1  0  0  0  0
  9 12  1  0  0  0  0
 12 13  2  0  0  0  0
 12 14  2  0  0  0  0
 12 15  1  0  0  0  0
 15 16  1  0  0  0  0
 16 17  2  0  0  0  0
 17 18  1  0  0  0  0
 18 19  2  0  0  0  0
 19 20  1  0  0  0  0
 16 20  1  0  0  0  0
 18 21  1  0  0  0  0
 21 22  2  0  0  0  0
 22 23  1  0  0  0  0
 23 24  2  0  0  0  0
 24 25  1  0  0  0  0
 25 26  2  0  0  0  0
 21 26  1  0  0  0  0
 15 27  1  0  0  0  0
 27 28  2  0  0  0  0
 28 29  1  0  0  0  0
 29 30  2  0  0  0  0
 30 31  1  0  0  0  0
 31 32  2  0  0  0  0
 27 32  1  0  0  0  0
 31 33  1  0  0  0  0
 33 34  1  0  0  0  0
 33 35  2  0  0  0  0
  4 36  1  0  0  0  0
 36 37  2  0  0  0  0
 37 38  1  0  0  0  0
 38 39  2  0  0  0  0
  3 39  1  0  0  0  0
M  END
> <ID>
CPD_4440

$$$$
CPD_4445
  Mrv1822 09091914012D          

 28 31  0  0  0  0            999 V2000
   -1.4851   -5.2264    0.0000 O   0  0  0  0  0  0  0  0  0  0  0  0
   -2.1996   -5.6389    0.0000 C   0  0  0  0  0  0  0  0  0  0  0  0
   -2.9141   -5.2264    0.0000 O   0  0  0  0  0  0  0  0  0  0  0  0
   -2.1996   -6.4639    0.0000 C   0  0  0  0  0  0  0  0  0  0  0  0
   -1.5321   -6.9488    0.0000 N   0  0  0  0  0  0  0  0  0  0  0  0
   -1.7871   -7.7334    0.0000 O   0  0  0  0  0  0  0  0  0  0  0  0
   -2.6121   -7.7334    0.0000 C   0  0  0  0  0  0  0  0  0  0  0  0
   -2.8670   -6.9488    0.0000 C   0  0  0  0  0  0  0  0  0  0  0  0
   -3.0970   -8.4009    0.0000 C   0  0  0  0  0  0  0  0  0  0  0  0
   -2.7615   -9.1545    0.0000 C   0  0  0  0  0  0  0  0  0  0  0  0
   -3.2464   -9.8220    0.0000 C   0  0  0  0  0  0  0  0  0  0  0  0
   -4.0669   -9.7357    0.0000 C   0  0  0  0  0  0  0  0  0  0  0  0
   -4.4024   -8.9821    0.0000 C   0  0  0  0  0  0  0  0  0  0  0  0
   -3.9175   -8.3146    0.0000 C   0  0  0  0  0  0  0  0  0  0  0  0
   -4.5518  -10.4032    0.0000 C   0  0  0  0  0  0  0  0  0  0  0  0
   -5.3723  -10.3169    0.0000 O   0  0  0  0  0  0  0  0  0  0  0  0
   -4.2162  -11.1569    0.0000 O   0  0  0  0  0  0  0  0  0  0  0  0
   -4.7011  -11.8243    0.0000 C   0  0  0  0  0  0  0  0  0  0  0  0
   -4.4462  -12.6089    0.0000 N   0  0  0  0  0  0  0  0  0  0  0  0
   -5.1136  -13.0938    0.0000 C   0  0  0  0  0  0  0  0  0  0  0  0
   -5.7811  -12.6089    0.0000 N   0  0  0  0  0  0  0  0  0  0  0  0
   -5.5261  -11.8243    0.0000 N   0  0  0  0  0  0  0  0  0  0  0  0
   -5.1136  -13.9188    0.0000 C   0  0  0  0  0  0  0  0  0  0  0  0
   -4.3992  -14.3313    0.0000 C   0  0  0  0  0  0  0  0  0  0  0  0
   -4.3992  -15.1563    0.0000 C   0  0  0  0  0  0  0  0  0  0  0  0
   -5.1136  -15.5688    0.0000 C   0  0  0  0  0  0  0  0  0  0  0  0
   -5.8281  -15.1563    0.0000 N   0  0  0  0  0  0  0  0  0  0  0  0
   -5.8281  -14.3313    0.0000 C   0  0  0  0  0  0  0  0  0  0  0  0
  1  2  1  0  0  0  0
  2  3  2  0  0  0  0
  2  4  1  0  0  0  0
  4  5  2  0  0  0  0
  5  6  1  0  0  0  0
  6  7  1  0  0  0  0
  7  8  2  0  0  0  0
  4  8  1  0  0  0  0
  7  9  1  0  0  0  0
  9 10  2  0  0  0  0
 10 11  1  0  0  0  0
 11 12  2  0  0  0  0
 12 13  1  0  0  0  0
 13 14  2  0  0  0  0
  9 14  1  0  0  0  0
 12 15  1  0  0  0  0
 15 16  2  0  0  0  0
 15 17  1  0  0  0  0
 17 18  1  0  0  0  0
 18 19  2  0  0  0  0
 19 20  1  0  0  0  0
 20 21  2  0  0  0  0
 21 22  1  0  0  0  0
 18 22  1  0  0  0  0
 20 23  1  0  0  0  0
 23 24  2  0  0  0  0
 24 25  1  0  0  0  0
 25 26  2  0  0  0  0
 26 27  1  0  0  0  0
 27 28  2  0  0  0  0
 23 28  1  0  0  0  0
M  END
> <ID>
CPD_4445

$$$$
CPD_4450
  Mrv1822 09091914012D          

 26 29  0  0  0  0            999 V2000
    3.5809    7.4274    0.0000 C   0  0  0  0  0  0  0  0  0  0  0  0
    3.1684    6.7130    0.0000 C   0  0  0  0  0  0  0  0  0  0  0  0
    3.5809    5.9985    0.0000 C   0  0  0  0  0  0  0  0  0  0  0  0
    4.4059    5.9985    0.0000 C   0  0  0  0  0  0  0  0  0  0  0  0
    4.8184    5.2840    0.0000 C   0  0  0  0  0  0  0  0  0  0  0  0
    4.4059    4.5695    0.0000 C   0  0  0  0  0  0  0  0  0  0  0  0
    4.6608    3.7849    0.0000 C   0  0  0  0  0  0  0  0  0  0  0  0
    3.9934    3.3000    0.0000 C   0  0  0  0  0  0  0  0  0  0  0  0
    3.3260    3.7849    0.0000 N   0  0  0  0  0  0  0  0  0  0  0  0
    3.5809    4.5695    0.0000 C   0  0  0  0  0  0  0  0  0  0  0  0
    3.1684    5.2840    0.0000 C   0  0  0  0  0  0  0  0  0  0  0  0
    3.9934    2.4750    0.0000 C   0  0  0  0  0  0  0  0  0  0  0  0
    4.7079    2.0625    0.0000 O   0  0  0  0  0  0  0  0  0  0  0  0
    3.2789    2.0625    0.0000 O   0  0  0  0  0  0  0  0  0  0  0  0
    3.2789    1.2375    0.0000 C   0  0  0  0  0  0  0  0  0  0  0  0
    3.9934    0.8250    0.0000 N   0  0  0  0  0  0  0  0  0  0  0  0
    3.9934    0.0000    0.0000 C   0  0  0  0  0  0  0  0  0  0  0  0
    4.7079   -0.4125    0.0000 C   0  0  0  0  0  0  0  0  0  0  0  0
    3.2789   -0.4125    0.0000 N   0  0  0  0  0  0  0  0  0  0  0  0
    2.5645    0.0000    0.0000 C   0  0  0  0  0  0  0  0  0  0  0  0
    1.7798   -0.2549    0.0000 C   0  0  0  0  0  0  0  0  0  0  0  0
    1.5249   -1.0396    0.0000 Br  0  0  0  0  0  0  0  0  0  0  0  0
    1.2949    0.4125    0.0000 C   0  0  0  0  0  0  0  0  0  0  0  0
    0.4699    0.4125    0.0000 C   0  0  0  0  0  0  0  0  0  0  0  0
    1.7798    1.0799    0.0000 N   0  0  0  0  0  0  0  0  0  0  0  0
    2.5645    0.8250    0.0000 N   0  0  0  0  0  0  0  0  0  0  0  0
  1  2  1  0  0  0  0
  2  3  1  0  0  0  0
  3  4  2  0  0  0  0
  4  5  1  0  0  0  0
  5  6  2  0  0  0  0
  6  7  1  0  0  0  0
  7  8  2  0  0  0  0
  8  9  1  0  0  0  0
  9 10  1  0  0  0  0
  6 10  1  0  0  0  0
 10 11  2  0  0  0  0
  3 11  1  0  0  0  0
  8 12  1  0  0  0  0
 12 13  2  0  0  0  0
 12 14  1  0  0  0  0
 14 15  1  0  0  0  0
 15 16  2  0  0  0  0
 16 17  1  0  0  0  0
 17 18  1  0  0  0  0
 17 19  2  0  0  0  0
 19 20  1  0  0  0  0
 20 21  2  0  0  0  0
 21 22  1  0  0  0  0
 21 23  1  0  0  0  0
 23 24  1  0  0  0  0
 23 25  2  0  0  0  0
 25 26  1  0  0  0  0
 15 26  1  0  0  0  0
 20 26  1  0  0  0  0
M  END
> <ID>
CPD_4450

$$$$
CPD_4455
  Mrv1822 09091914012D          

 26 28  0  0  0  0            999 V2000
   -1.4534   -0.6979    0.0000 C   0  0  0  0  0  0  0  0  0  0  0  0
   -0.6284   -0.6979    0.0000 C   0  0  0  0  0  0  0  0  0  0  0  0
   -0.1435   -1.3654    0.0000 N   0  0  0  0  0  0  0  0  0  0  0  0
    0.6411   -1.1104    0.0000 N   0  0  0  0  0  0  0  0  0  0  0  0
    0.6411   -0.2854    0.0000 C   0  0  0  0  0  0  0  0  0  0  0  0
    1.3556    0.1271    0.0000 N   0  0  0  0  0  0  0  0  0  0  0  0
    2.0701   -0.2854    0.0000 C   0  0  0  0  0  0  0  0  0  0  0  0
    2.7845    0.1271    0.0000 C   0  0  0  0  0  0  0  0  0  0  0  0
    2.0701   -1.1104    0.0000 N   0  0  0  0  0  0  0  0  0  0  0  0
    1.3556   -1.5229    0.0000 C   0  0  0  0  0  0  0  0  0  0  0  0
    1.3556   -2.3479    0.0000 O   0  0  0  0  0  0  0  0  0  0  0  0
    2.0701   -2.7604    0.0000 C   0  0  0  0  0  0  0  0  0  0  0  0
    2.7845   -2.3479    0.0000 O   0  0  0  0  0  0  0  0  0  0  0  0
    2.0701   -3.5854    0.0000 C   0  0  0  0  0  0  0  0  0  0  0  0
    2.7845   -3.9979    0.0000 C   0  0  0  0  0  0  0  0  0  0  0  0
    3.4990   -3.5854    0.0000 N   0  0  0  0  0  0  0  0  0  0  0  0
    2.7845   -4.8229    0.0000 C   0  0  0  0  0  0  0  0  0  0  0  0
    2.0701   -5.2354    0.0000 C   0  0  0  0  0  0  0  0  0  0  0  0
    1.3556   -4.8229    0.0000 C   0  0  0  0  0  0  0  0  0  0  0  0
    1.3556   -3.9979    0.0000 C   0  0  0  0  0  0  0  0  0  0  0  0
    0.6411   -3.5854    0.0000 C   0  0  0  0  0  0  0  0  0  0  0  0
   -0.0734   -3.1729    0.0000 F   0  0  0  0  0  0  0  0  0  0  0  0
    1.0536   -2.8710    0.0000 F   0  0  0  0  0  0  0  0  0  0  0  0
    0.2286   -4.2999    0.0000 F   0  0  0  0  0  0  0  0  0  0  0  0
   -0.1435   -0.0305    0.0000 C   0  0  0  0  0  0  0  0  0  0  0  0
   -0.3984    0.7541    0.0000 Br  0  0  0  0  0  0  0  0  0  0  0  0
  1  2  1  0  0  0  0
  2  3  2  0  0  0  0
  3  4  1  0  0  0  0
  4  5  1  0  0  0  0
  5  6  1  0  0  0  0
  6  7  2  0  0  0  0
  7  8  1  0  0  0  0
  7  9  1  0  0  0  0
  9 10  2  0  0  0  0
  4 10  1  0  0  0  0
 10 11  1  0  0  0  0
 11 12  1  0  0  0  0
 12 13  2  0  0  0  0
 12 14  1  0  0  0  0
 14 15  2  0  0  0  0
 15 16  1  0  0  0  0
 15 17  1  0  0  0  0
 17 18  2  0  0  0  0
 18 19  1  0  0  0  0
 19 20  2  0  0  0  0
 14 20  1  0  0  0  0
 20 21  1  0  0  0  0
 21 22  1  0  0  0  0
 21 23  1  0  0  0  0
 21 24  1  0  0  0  0
  5 25  2  0  0  0  0
  2 25  1  0  0  0  0
 25 26  1  0  0  0  0
M  END
> <ID>
CPD_4455

$$$$
CPD_4460
  Mrv1822 09091914012D          

 27 30  0  0  0  0            999 V2000
    0.7145   -3.7125    0.0000 C   0  0  0  0  0  0  0  0  0  0  0  0
    0.7145   -2.8875    0.0000 O   0  0  0  0  0  0  0  0  0  0  0  0
    1.4289   -2.4750    0.0000 C   0  0  0  0  0  0  0  0  0  0  0  0
    2.1434   -2.8875    0.0000 O   0  0  0  0  0  0  0  0  0  0  0  0
    1.4289   -1.6500    0.0000 C   0  0  0  0  0  0  0  0  0  0  0  0
    0.7145   -1.2375    0.0000 N   0  0  0  0  0  0  0  0  0  0  0  0
    0.7145   -0.4125    0.0000 C   0  0  0  0  0  0  0  0  0  0  0  0
    1.4289    0.0000    0.0000 C   0  0  0  0  0  0  0  0  0  0  0  0
    2.1434   -0.4125    0.0000 C   0  0  0  0  0  0  0  0  0  0  0  0
    2.8579    0.0000    0.0000 C   0  0  0  0  0  0  0  0  0  0  0  0
    3.5724   -0.4125    0.0000 C   0  0  0  0  0  0  0  0  0  0  0  0
    4.2868   -0.0000    0.0000 O   0  0  0  0  0  0  0  0  0  0  0  0
    4.2868    0.8250    0.0000 C   0  0  0  0  0  0  0  0  0  0  0  0
    3.5724    1.2375    0.0000 N   0  0  0  0  0  0  0  0  0  0  0  0
    3.5724    2.0625    0.0000 C   0  0  0  0  0  0  0  0  0  0  0  0
    2.8579    2.4750    0.0000 C   0  0  0  0  0  0  0  0  0  0  0  0
    4.2868    2.4750    0.0000 N   0  0  0  0  0  0  0  0  0  0  0  0
    5.0013    2.0625    0.0000 C   0  0  0  0  0  0  0  0  0  0  0  0
    5.7859    2.3174    0.0000 C   0  0  0  0  0  0  0  0  0  0  0  0
    6.0409    3.1021    0.0000 Br  0  0  0  0  0  0  0  0  0  0  0  0
    6.2708    1.6500    0.0000 C   0  0  0  0  0  0  0  0  0  0  0  0
    7.0958    1.6500    0.0000 C   0  0  0  0  0  0  0  0  0  0  0  0
    5.7859    0.9826    0.0000 N   0  0  0  0  0  0  0  0  0  0  0  0
    5.0013    1.2375    0.0000 N   0  0  0  0  0  0  0  0  0  0  0  0
    3.5724   -1.2375    0.0000 C   0  0  0  0  0  0  0  0  0  0  0  0
    2.8579   -1.6500    0.0000 C   0  0  0  0  0  0  0  0  0  0  0  0
    2.1434   -1.2375    0.0000 C   0  0  0  0  0  0  0  0  0  0  0  0
  1  2  1  0  0  0  0
  2  3  1  0  0  0  0
  3  4  2  0  0  0  0
  3  5  1  0  0  0  0
  5  6  1  0  0  0  0
  6  7  1  0  0  0  0
  7  8  1  0  0  0  0
  8  9  1  0  0  0  0
  9 10  2  0  0  0  0
 10 11  1  0  0  0  0
 11 12  1  0  0  0  0
 12 13  1  0  0  0  0
 13 14  2  0  0  0  0
 14 15  1  0  0  0  0
 15 16  1  0  0  0  0
 15 17  2  0  0  0  0
 17 18  1  0  0  0  0
 18 19  2  0  0  0  0
 19 20  1  0  0  0  0
 19 21  1  0  0  0  0
 21 22  1  0  0  0  0
 21 23  2  0  0  0  0
 23 24  1  0  0  0  0
 13 24  1  0  0  0  0
 18 24  1  0  0  0  0
 11 25  2  0  0  0  0
 25 26  1  0  0  0  0
 26 27  2  0  0  0  0
  5 27  1  0  0  0  0
  9 27  1  0  0  0  0
M  END
> <ID>
CPD_4460

$$$$
CPD_4465
  Mrv1822 09091914012D          

 39 41  0  0  1  0            999 V2000
    3.4618    2.6368    0.0000 C   0  0  0  0  0  0  0  0  0  0  0  0
    4.2868    2.6368    0.0000 O   0  0  0  0  0  0  0  0  0  0  0  0
    4.6993    1.9224    0.0000 C   0  0  0  0  0  0  0  0  0  0  0  0
    3.9457    1.5868    0.0000 O   0  0  0  0  0  0  0  0  0  0  0  0
    5.5243    1.9224    0.0000 C   0  0  0  0  0  0  0  0  0  0  0  0
    5.9368    2.6368    0.0000 C   0  0  0  0  0  0  0  0  0  0  0  0
    6.7618    2.6368    0.0000 C   0  0  0  0  0  0  0  0  0  0  0  0
    7.1743    1.9224    0.0000 C   0  0  0  0  0  0  0  0  0  0  0  0
    6.7618    1.2079    0.0000 C   0  0  0  0  0  0  0  0  0  0  0  0
    5.9368    1.2079    0.0000 C   0  0  0  0  0  0  0  0  0  0  0  0
    5.5243    0.4934    0.0000 N   0  0  0  0  0  0  0  0  0  0  0  0
    5.9368   -0.2211    0.0000 C   0  0  0  0  0  0  0  0  0  0  0  0
    6.7618   -0.2211    0.0000 O   0  0  0  0  0  0  0  0  0  0  0  0
    5.5243   -0.9355    0.0000 C   0  0  0  0  0  0  0  0  0  0  0  0
    4.6993   -0.9355    0.0000 C   0  0  0  0  0  0  0  0  0  0  0  0
    4.2868   -1.6500    0.0000 C   0  0  0  0  0  0  0  0  0  0  0  0
    4.6993   -2.3645    0.0000 O   0  0  0  0  0  0  0  0  0  0  0  0
    3.4618   -1.6500    0.0000 O   0  0  0  0  0  0  0  0  0  0  0  0
    5.9368   -1.6500    0.0000 N   0  0  0  0  0  0  0  0  0  0  0  0
    6.7618   -1.6500    0.0000 C   0  0  0  0  0  0  0  0  0  0  0  0
    7.1743   -2.3645    0.0000 C   0  0  0  0  0  0  0  0  0  0  0  0
    7.9948   -2.4507    0.0000 C   0  0  0  0  0  0  0  0  0  0  0  0
    8.1663   -3.2577    0.0000 C   0  0  0  0  0  0  0  0  0  0  0  0
    7.4519   -3.6702    0.0000 C   0  0  0  0  0  0  0  0  0  0  0  0
    6.8388   -3.1181    0.0000 O   0  0  0  0  0  0  0  0  0  0  0  0
    4.6993    0.4934    0.0000 C   0  0  0  0  0  0  0  0  0  0  0  0
    4.2144    1.1609    0.0000 C   0  0  0  0  0  0  0  0  0  0  0  0
    3.4298    0.9059    0.0000 C   0  0  0  0  0  0  0  0  0  0  0  0
    2.7623    1.3908    0.0000 O   0  0  0  0  0  0  0  0  0  0  0  0
    3.4298    0.0809    0.0000 N   0  0  0  0  0  0  0  0  0  0  0  0
    4.2144   -0.1740    0.0000 C   0  0  1  0  0  0  0  0  0  0  0  0
    4.2144   -0.9990    0.0000 C   0  0  0  0  0  0  0  0  0  0  0  0
    2.7623   -0.4040    0.0000 C   0  0  0  0  0  0  0  0  0  0  0  0
    2.8486   -1.2245    0.0000 O   0  0  0  0  0  0  0  0  0  0  0  0
    2.0087   -0.0685    0.0000 O   0  0  0  0  0  0  0  0  0  0  0  0
    1.3412   -0.5534    0.0000 C   0  0  0  0  0  0  0  0  0  0  0  0
    0.6738   -1.0383    0.0000 C   0  0  0  0  0  0  0  0  0  0  0  0
    0.8563    0.1141    0.0000 C   0  0  0  0  0  0  0  0  0  0  0  0
    1.8262   -1.2208    0.0000 C   0  0  0  0  0  0  0  0  0  0  0  0
  1  2  1  0  0  0  0
  2  3  1  0  0  0  0
  3  4  2  0  0  0  0
  3  5  1  0  0  0  0
  5  6  2  0  0  0  0
  6  7  1  0  0  0  0
  7  8  2  0  0  0  0
  8  9  1  0  0  0  0
  9 10  2  0  0  0  0
  5 10  1  0  0  0  0
 10 11  1  0  0  0  0
 11 12  1  0  0  0  0
 12 13  2  0  0  0  0
 12 14  1  0  0  0  0
 14 15  1  0  0  0  0
 15 16  1  0  0  0  0
 16 17  1  0  0  0  0
 16 18  2  0  0  0  0
 14 19  1  0  0  0  0
 19 20  1  0  0  0  0
 20 21  1  0  0  0  0
 21 22  2  0  0  0  0
 22 23  1  0  0  0  0
 23 24  2  0  0  0  0
 24 25  1  0  0  0  0
 21 25  1  0  0  0  0
 11 26  1  0  0  0  0
 26 27  2  0  0  0  0
 27 28  1  0  0  0  0
 28 29  2  0  0  0  0
 28 30  1  0  0  0  0
 31 30  1  0  0  0  0
 31 26  1  0  0  0  0
 31 32  1  6  0  0  0
 30 33  1  0  0  0  0
 33 34  2  0  0  0  0
 33 35  1  0  0  0  0
 35 36  1  0  0  0  0
 36 37  1  0  0  0  0
 36 38  1  0  0  0  0
 36 39  1  0  0  0  0
M  END
> <ID>
CPD_4465

$$$$
CPD_4470
  Mrv1822 09091914012D          

 23 24  0  0  1  0            999 V2000
    0.0179   -0.6474    0.0000 C   0  0  0  0  0  0  0  0  0  0  0  0
    0.0179   -1.4724    0.0000 C   0  0  2  0  0  0  0  0  0  0  0  0
    0.6854   -1.9573    0.0000 N   0  0  0  0  0  0  0  0  0  0  0  0
    1.4700   -1.7024    0.0000 C   0  0  0  0  0  0  0  0  0  0  0  0
    1.6415   -0.8954    0.0000 O   0  0  0  0  0  0  0  0  0  0  0  0
    2.0831   -2.2544    0.0000 O   0  0  0  0  0  0  0  0  0  0  0  0
    2.8677   -1.9995    0.0000 C   0  0  0  0  0  0  0  0  0  0  0  0
    3.6523   -1.7445    0.0000 C   0  0  0  0  0  0  0  0  0  0  0  0
    2.6128   -1.2149    0.0000 C   0  0  0  0  0  0  0  0  0  0  0  0
    3.1227   -2.7841    0.0000 C   0  0  0  0  0  0  0  0  0  0  0  0
    0.4304   -2.7419    0.0000 C   0  0  0  0  0  0  0  0  0  0  0  0
    0.9154   -3.4094    0.0000 O   0  0  0  0  0  0  0  0  0  0  0  0
   -0.3946   -2.7419    0.0000 C   0  0  0  0  0  0  0  0  0  0  0  0
   -0.6495   -1.9573    0.0000 C   0  0  0  0  0  0  0  0  0  0  0  0
   -1.4341   -1.7024    0.0000 N   0  0  0  0  0  0  0  0  0  0  0  0
   -2.0472   -2.2544    0.0000 C   0  0  0  0  0  0  0  0  0  0  0  0
   -1.9610   -3.0749    0.0000 N   0  0  0  0  0  0  0  0  0  0  0  0
   -2.7147   -3.4105    0.0000 C   0  0  0  0  0  0  0  0  0  0  0  0
   -3.2667   -2.7974    0.0000 C   0  0  0  0  0  0  0  0  0  0  0  0
   -4.0872   -2.8836    0.0000 C   0  0  0  0  0  0  0  0  0  0  0  0
   -4.5721   -2.2162    0.0000 C   0  0  0  0  0  0  0  0  0  0  0  0
   -5.3926   -2.3024    0.0000 O   0  0  0  0  0  0  0  0  0  0  0  0
   -2.8542   -2.0829    0.0000 S   0  0  0  0  0  0  0  0  0  0  0  0
  2  1  1  6  0  0  0
  2  3  1  0  0  0  0
  3  4  1  0  0  0  0
  4  5  2  0  0  0  0
  4  6  1  0  0  0  0
  6  7  1  0  0  0  0
  7  8  1  0  0  0  0
  7  9  1  0  0  0  0
  7 10  1  0  0  0  0
  3 11  1  0  0  0  0
 11 12  2  0  0  0  0
 11 13  1  0  0  0  0
 13 14  2  0  0  0  0
  2 14  1  0  0  0  0
 14 15  1  0  0  0  0
 15 16  1  0  0  0  0
 16 17  2  0  0  0  0
 17 18  1  0  0  0  0
 18 19  2  0  0  0  0
 19 20  1  0  0  0  0
 20 21  1  0  0  0  0
 21 22  1  0  0  0  0
 19 23  1  0  0  0  0
 16 23  1  0  0  0  0
M  END
> <ID>
CPD_4470

$$$$
CPD_4475
  Mrv1822 09091914012D          

 30 34  0  0  0  0            999 V2000
   -4.2868   -2.4750    0.0000 C   0  0  0  0  0  0  0  0  0  0  0  0
   -3.5724   -2.8875    0.0000 S   0  0  0  0  0  0  0  0  0  0  0  0
   -2.8579   -2.4750    0.0000 C   0  0  0  0  0  0  0  0  0  0  0  0
   -2.1434   -2.8875    0.0000 N   0  0  0  0  0  0  0  0  0  0  0  0
   -1.4289   -2.4750    0.0000 C   0  0  0  0  0  0  0  0  0  0  0  0
   -1.4289   -1.6500    0.0000 C   0  0  0  0  0  0  0  0  0  0  0  0
   -2.1434   -1.2375    0.0000 C   0  0  0  0  0  0  0  0  0  0  0  0
   -2.8579   -1.6500    0.0000 N   0  0  0  0  0  0  0  0  0  0  0  0
   -0.7145   -1.2375    0.0000 C   0  0  0  0  0  0  0  0  0  0  0  0
    0.0000   -1.6500    0.0000 C   0  0  0  0  0  0  0  0  0  0  0  0
    0.0000   -2.4750    0.0000 C   0  0  0  0  0  0  0  0  0  0  0  0
   -0.7145   -2.8875    0.0000 C   0  0  0  0  0  0  0  0  0  0  0  0
    0.7145   -1.2375    0.0000 N   0  0  0  0  0  0  0  0  0  0  0  0
    0.7145   -0.4125    0.0000 N   0  0  0  0  0  0  0  0  0  0  0  0
    1.4289    0.0000    0.0000 C   0  0  0  0  0  0  0  0  0  0  0  0
    1.4289    0.8250    0.0000 C   0  0  0  0  0  0  0  0  0  0  0  0
    0.7145    1.2375    0.0000 C   0  0  0  0  0  0  0  0  0  0  0  0
    0.7145    2.0625    0.0000 C   0  0  0  0  0  0  0  0  0  0  0  0
    1.4289    2.4750    0.0000 C   0  0  0  0  0  0  0  0  0  0  0  0
    2.1434    2.0625    0.0000 C   0  0  0  0  0  0  0  0  0  0  0  0
    2.1434    1.2375    0.0000 C   0  0  0  0  0  0  0  0  0  0  0  0
    2.1434   -0.4125    0.0000 C   0  0  0  0  0  0  0  0  0  0  0  0
    2.8579    0.0000    0.0000 C   0  0  0  0  0  0  0  0  0  0  0  0
    3.5724   -0.4125    0.0000 C   0  0  0  0  0  0  0  0  0  0  0  0
    3.5724   -1.2375    0.0000 C   0  0  0  0  0  0  0  0  0  0  0  0
    2.8579   -1.6500    0.0000 C   0  0  0  0  0  0  0  0  0  0  0  0
    2.1434   -1.2375    0.0000 C   0  0  0  0  0  0  0  0  0  0  0  0
    1.4289   -1.6500    0.0000 S   0  0  0  0  0  0  0  0  0  0  0  0
    1.8163   -2.3784    0.0000 O   0  0  0  0  0  0  0  0  0  0  0  0
    1.0416   -2.3784    0.0000 O   0  0  0  0  0  0  0  0  0  0  0  0
  1  2  1  0  0  0  0
  2  3  1  0  0  0  0
  3  4  2  0  0  0  0
  4  5  1  0  0  0  0
  5  6  2  0  0  0  0
  6  7  1  0  0  0  0
  7  8  2  0  0  0  0
  3  8  1  0  0  0  0
  6  9  1  0  0  0  0
  9 10  2  0  0  0  0
 10 11  1  0  0  0  0
 11 12  2  0  0  0  0
  5 12  1  0  0  0  0
 10 13  1  0  0  0  0
 13 14  1  0  0  0  0
 14 15  2  0  0  0  0
 15 16  1  0  0  0  0
 16 17  2  0  0  0  0
 17 18  1  0  0  0  0
 18 19  2  0  0  0  0
 19 20  1  0  0  0  0
 20 21  2  0  0  0  0
 16 21  1  0  0  0  0
 15 22  1  0  0  0  0
 22 23  2  0  0  0  0
 23 24  1  0  0  0  0
 24 25  2  0  0  0  0
 25 26  1  0  0  0  0
 26 27  2  0  0  0  0
 22 27  1  0  0  0  0
 27 28  1  0  0  0  0
 13 28  1  0  0  0  0
 28 29  2  0  0  0  0
 28 30  2  0  0  0  0
M  END
> <ID>
CPD_4475

$$$$
CPD_4480
  Mrv1822 09091914012D          

 24 26  0  0  1  0            999 V2000
    0.7145   -5.3625    0.0000 C   0  0  0  0  0  0  0  0  0  0  0  0
    1.4289   -4.9500    0.0000 C   0  0  0  0  0  0  0  0  0  0  0  0
    2.1434   -5.3625    0.0000 O   0  0  0  0  0  0  0  0  0  0  0  0
    2.8579   -4.9500    0.0000 C   0  0  0  0  0  0  0  0  0  0  0  0
    2.8579   -4.1250    0.0000 O   0  0  0  0  0  0  0  0  0  0  0  0
    3.5724   -5.3625    0.0000 C   0  0  0  0  0  0  0  0  0  0  0  0
    4.2868   -4.9500    0.0000 C   0  0  1  0  0  0  0  0  0  0  0  0
    4.2868   -4.1250    0.0000 C   0  0  0  0  0  0  0  0  0  0  0  0
    5.0013   -3.7125    0.0000 C   0  0  0  0  0  0  0  0  0  0  0  0
    5.7158   -4.1250    0.0000 C   0  0  0  0  0  0  0  0  0  0  0  0
    5.7158   -4.9500    0.0000 N   0  0  0  0  0  0  0  0  0  0  0  0
    5.0013   -5.3625    0.0000 C   0  0  0  0  0  0  0  0  0  0  0  0
    6.4302   -5.3625    0.0000 C   0  0  0  0  0  0  0  0  0  0  0  0
    6.4302   -6.1875    0.0000 C   0  0  0  0  0  0  0  0  0  0  0  0
    7.1447   -6.6000    0.0000 C   0  0  0  0  0  0  0  0  0  0  0  0
    7.8592   -6.1875    0.0000 C   0  0  0  0  0  0  0  0  0  0  0  0
    7.8592   -5.3625    0.0000 C   0  0  0  0  0  0  0  0  0  0  0  0
    7.1447   -4.9500    0.0000 C   0  0  0  0  0  0  0  0  0  0  0  0
    8.5737   -6.6000    0.0000 C   0  0  0  0  0  0  0  0  0  0  0  0
    8.5737   -7.4250    0.0000 C   0  0  0  0  0  0  0  0  0  0  0  0
    9.2881   -7.8375    0.0000 N   0  0  0  0  0  0  0  0  0  0  0  0
    7.8592   -7.8375    0.0000 C   0  0  0  0  0  0  0  0  0  0  0  0
    7.8592   -8.6625    0.0000 O   0  0  0  0  0  0  0  0  0  0  0  0
    7.1447   -7.4250    0.0000 O   0  0  0  0  0  0  0  0  0  0  0  0
  1  2  1  0  0  0  0
  2  3  1  0  0  0  0
  3  4  1  0  0  0  0
  4  5  2  0  0  0  0
  4  6  1  0  0  0  0
  7  6  1  1  0  0  0
  7  8  1  0  0  0  0
  8  9  1  0  0  0  0
  9 10  1  0  0  0  0
 10 11  1  0  0  0  0
 11 12  1  0  0  0  0
  7 12  1  0  0  0  0
 11 13  1  0  0  0  0
 13 14  2  0  0  0  0
 14 15  1  0  0  0  0
 15 16  2  0  0  0  0
 16 17  1  0  0  0  0
 17 18  2  0  0  0  0
 13 18  1  0  0  0  0
 16 19  1  0  0  0  0
 19 20  2  0  0  0  0
 20 21  1  0  0  0  0
 20 22  1  0  0  0  0
 22 23  2  0  0  0  0
 22 24  1  0  0  0  0
 15 24  1  0  0  0  0
M  END
> <ID>
CPD_4480

$$$$
CPD_4485
  Mrv1822 09091914012D          

 23 26  0  0  0  0            999 V2000
   -4.2868    0.0000    0.0000 C   0  0  0  0  0  0  0  0  0  0  0  0
   -3.5724   -0.4125    0.0000 N   0  0  0  0  0  0  0  0  0  0  0  0
   -2.8579    0.0000    0.0000 C   0  0  0  0  0  0  0  0  0  0  0  0
   -2.1434   -0.4125    0.0000 C   0  0  0  0  0  0  0  0  0  0  0  0
   -2.1434   -1.2375    0.0000 C   0  0  0  0  0  0  0  0  0  0  0  0
   -2.8579   -1.6500    0.0000 C   0  0  0  0  0  0  0  0  0  0  0  0
   -3.5724   -1.2375    0.0000 C   0  0  0  0  0  0  0  0  0  0  0  0
   -1.4289   -1.6500    0.0000 N   0  0  0  0  0  0  0  0  0  0  0  0
   -1.4289   -2.4750    0.0000 C   0  0  0  0  0  0  0  0  0  0  0  0
   -1.0164   -3.1895    0.0000 C   0  0  0  0  0  0  0  0  0  0  0  0
   -1.8414   -3.1895    0.0000 C   0  0  0  0  0  0  0  0  0  0  0  0
   -0.7145   -1.2375    0.0000 C   0  0  0  0  0  0  0  0  0  0  0  0
    0.0000   -1.6500    0.0000 C   0  0  0  0  0  0  0  0  0  0  0  0
    0.7145   -1.2375    0.0000 C   0  0  0  0  0  0  0  0  0  0  0  0
    0.7145   -0.4125    0.0000 C   0  0  0  0  0  0  0  0  0  0  0  0
    0.0000   -0.0000    0.0000 C   0  0  0  0  0  0  0  0  0  0  0  0
   -0.7145   -0.4125    0.0000 C   0  0  0  0  0  0  0  0  0  0  0  0
    1.4289   -0.0000    0.0000 C   0  0  0  0  0  0  0  0  0  0  0  0
    2.1434   -0.4125    0.0000 C   0  0  0  0  0  0  0  0  0  0  0  0
    2.8579   -0.0000    0.0000 N   0  0  0  0  0  0  0  0  0  0  0  0
    2.1434   -1.2375    0.0000 C   0  0  0  0  0  0  0  0  0  0  0  0
    2.8579   -1.6500    0.0000 O   0  0  0  0  0  0  0  0  0  0  0  0
    1.4289   -1.6500    0.0000 O   0  0  0  0  0  0  0  0  0  0  0  0
  1  2  1  0  0  0  0
  2  3  1  0  0  0  0
  3  4  1  0  0  0  0
  4  5  1  0  0  0  0
  5  6  1  0  0  0  0
  6  7  1  0  0  0  0
  2  7  1  0  0  0  0
  5  8  1  0  0  0  0
  8  9  1  0  0  0  0
  9 10  1  0  0  0  0
 10 11  1  0  0  0  0
  9 11  1  0  0  0  0
  8 12  1  0  0  0  0
 12 13  2  0  0  0  0
 13 14  1  0  0  0  0
 14 15  2  0  0  0  0
 15 16  1  0  0  0  0
 16 17  2  0  0  0  0
 12 17  1  0  0  0  0
 15 18  1  0  0  0  0
 18 19  2  0  0  0  0
 19 20  1  0  0  0  0
 19 21  1  0  0  0  0
 21 22  2  0  0  0  0
 21 23  1  0  0  0  0
 14 23  1  0  0  0  0
M  END
> <ID>
CPD_4485

$$$$
CPD_4490
  Mrv1822 09091914012D          

 27 29  0  0  0  0            999 V2000
   -1.4289   -1.6500    0.0000 N   0  0  0  0  0  0  0  0  0  0  0  0
   -0.7145   -1.2375    0.0000 C   0  0  0  0  0  0  0  0  0  0  0  0
    0.0000   -1.6500    0.0000 C   0  0  0  0  0  0  0  0  0  0  0  0
    0.7145   -1.2375    0.0000 C   0  0  0  0  0  0  0  0  0  0  0  0
    0.7145   -0.4125    0.0000 C   0  0  0  0  0  0  0  0  0  0  0  0
    0.0000   -0.0000    0.0000 O   0  0  0  0  0  0  0  0  0  0  0  0
   -0.7145   -0.4125    0.0000 C   0  0  0  0  0  0  0  0  0  0  0  0
   -1.4289    0.0000    0.0000 O   0  0  0  0  0  0  0  0  0  0  0  0
    1.4289   -0.0000    0.0000 C   0  0  0  0  0  0  0  0  0  0  0  0
    2.1434   -0.4125    0.0000 C   0  0  0  0  0  0  0  0  0  0  0  0
    2.8579   -0.0000    0.0000 O   0  0  0  0  0  0  0  0  0  0  0  0
    3.5724   -0.4125    0.0000 C   0  0  0  0  0  0  0  0  0  0  0  0
    3.5724   -1.2375    0.0000 C   0  0  0  0  0  0  0  0  0  0  0  0
    4.2868   -1.6500    0.0000 C   0  0  0  0  0  0  0  0  0  0  0  0
    5.0013   -1.2375    0.0000 C   0  0  0  0  0  0  0  0  0  0  0  0
    5.7158   -1.6500    0.0000 O   0  0  0  0  0  0  0  0  0  0  0  0
    6.4302   -1.2375    0.0000 C   0  0  0  0  0  0  0  0  0  0  0  0
    7.1447   -0.8250    0.0000 F   0  0  0  0  0  0  0  0  0  0  0  0
    6.8427   -1.9520    0.0000 F   0  0  0  0  0  0  0  0  0  0  0  0
    6.0177   -0.5230    0.0000 F   0  0  0  0  0  0  0  0  0  0  0  0
    5.0013   -0.4125    0.0000 C   0  0  0  0  0  0  0  0  0  0  0  0
    4.2868   -0.0000    0.0000 C   0  0  0  0  0  0  0  0  0  0  0  0
    4.2868    0.8250    0.0000 C   0  0  0  0  0  0  0  0  0  0  0  0
    3.5724    1.2375    0.0000 O   0  0  0  0  0  0  0  0  0  0  0  0
    5.0013    1.2375    0.0000 O   0  0  0  0  0  0  0  0  0  0  0  0
    2.1434   -1.2375    0.0000 C   0  0  0  0  0  0  0  0  0  0  0  0
    1.4289   -1.6500    0.0000 C   0  0  0  0  0  0  0  0  0  0  0  0
  1  2  1  0  0  0  0
  2  3  2  0  0  0  0
  3  4  1  0  0  0  0
  4  5  2  0  0  0  0
  5  6  1  0  0  0  0
  6  7  1  0  0  0  0
  2  7  1  0  0  0  0
  7  8  2  0  0  0  0
  5  9  1  0  0  0  0
  9 10  2  0  0  0  0
 10 11  1  0  0  0  0
 11 12  1  0  0  0  0
 12 13  2  0  0  0  0
 13 14  1  0  0  0  0
 14 15  2  0  0  0  0
 15 16  1  0  0  0  0
 16 17  1  0  0  0  0
 17 18  1  0  0  0  0
 17 19  1  0  0  0  0
 17 20  1  0  0  0  0
 15 21  1  0  0  0  0
 21 22  2  0  0  0  0
 12 22  1  0  0  0  0
 22 23  1  0  0  0  0
 23 24  1  0  0  0  0
 23 25  2  0  0  0  0
 10 26  1  0  0  0  0
 26 27  2  0  0  0  0
  4 27  1  0  0  0  0
M  END
> <ID>
CPD_4490

$$$$
CPD_4495
  Mrv1822 09091914012D          

 30 32  0  0  0  0            999 V2000
   -3.5724   -1.2375    0.0000 C   0  0  0  0  0  0  0  0  0  0  0  0
   -2.8579   -0.8250    0.0000 C   0  0  0  0  0  0  0  0  0  0  0  0
   -2.1434   -1.2375    0.0000 O   0  0  0  0  0  0  0  0  0  0  0  0
   -1.4289   -0.8250    0.0000 C   0  0  0  0  0  0  0  0  0  0  0  0
   -1.4289   -0.0000    0.0000 C   0  0  0  0  0  0  0  0  0  0  0  0
   -0.7145    0.4125    0.0000 C   0  0  0  0  0  0  0  0  0  0  0  0
   -0.7145    1.2375    0.0000 Br  0  0  0  0  0  0  0  0  0  0  0  0
    0.0000   -0.0000    0.0000 C   0  0  0  0  0  0  0  0  0  0  0  0
    0.7145    0.4125    0.0000 Br  0  0  0  0  0  0  0  0  0  0  0  0
    0.0000   -0.8250    0.0000 C   0  0  0  0  0  0  0  0  0  0  0  0
    0.7145   -1.2375    0.0000 C   0  0  0  0  0  0  0  0  0  0  0  0
    0.7145   -2.0625    0.0000 N   0  0  0  0  0  0  0  0  0  0  0  0
    0.0000   -2.4750    0.0000 C   0  0  0  0  0  0  0  0  0  0  0  0
    0.0000   -3.3000    0.0000 C   0  0  0  0  0  0  0  0  0  0  0  0
   -0.7145   -3.7125    0.0000 O   0  0  0  0  0  0  0  0  0  0  0  0
    1.4289   -2.4750    0.0000 C   0  0  0  0  0  0  0  0  0  0  0  0
    1.4289   -3.3000    0.0000 O   0  0  0  0  0  0  0  0  0  0  0  0
    2.1434   -2.0625    0.0000 C   0  0  0  0  0  0  0  0  0  0  0  0
    2.1434   -1.2375    0.0000 C   0  0  0  0  0  0  0  0  0  0  0  0
    2.8579   -0.8250    0.0000 C   0  0  0  0  0  0  0  0  0  0  0  0
    3.5724   -1.2375    0.0000 C   0  0  0  0  0  0  0  0  0  0  0  0
    3.5724   -2.0625    0.0000 C   0  0  0  0  0  0  0  0  0  0  0  0
    2.8579   -2.4750    0.0000 C   0  0  0  0  0  0  0  0  0  0  0  0
    4.2868   -0.8250    0.0000 N   0  0  0  0  0  0  0  0  0  0  0  0
    4.3731   -0.0045    0.0000 C   0  0  0  0  0  0  0  0  0  0  0  0
    5.1800    0.1670    0.0000 C   0  0  0  0  0  0  0  0  0  0  0  0
    5.5925   -0.5475    0.0000 N   0  0  0  0  0  0  0  0  0  0  0  0
    5.0405   -1.1606    0.0000 C   0  0  0  0  0  0  0  0  0  0  0  0
   -0.7145   -1.2375    0.0000 C   0  0  0  0  0  0  0  0  0  0  0  0
   -0.7145   -2.0625    0.0000 O   0  0  0  0  0  0  0  0  0  0  0  0
  1  2  1  0  0  0  0
  2  3  1  0  0  0  0
  3  4  1  0  0  0  0
  4  5  2  0  0  0  0
  5  6  1  0  0  0  0
  6  7  1  0  0  0  0
  6  8  2  0  0  0  0
  8  9  1  0  0  0  0
  8 10  1  0  0  0  0
 10 11  1  0  0  0  0
 11 12  1  0  0  0  0
 12 13  1  0  0  0  0
 13 14  1  0  0  0  0
 14 15  1  0  0  0  0
 12 16  1  0  0  0  0
 16 17  2  0  0  0  0
 16 18  1  0  0  0  0
 18 19  2  0  0  0  0
 19 20  1  0  0  0  0
 20 21  2  0  0  0  0
 21 22  1  0  0  0  0
 22 23  2  0  0  0  0
 18 23  1  0  0  0  0
 21 24  1  0  0  0  0
 24 25  1  0  0  0  0
 25 26  2  0  0  0  0
 26 27  1  0  0  0  0
 27 28  2  0  0  0  0
 24 28  1  0  0  0  0
 10 29  2  0  0  0  0
  4 29  1  0  0  0  0
 29 30  1  0  0  0  0
M  END
> <ID>
CPD_4495

$$$$
CPD_4500
  Mrv1822 09091914012D          

 30 32  0  0  0  0            999 V2000
    2.8579    0.0000    0.0000 C   0  0  0  0  0  0  0  0  0  0  0  0
    3.5724   -0.4125    0.0000 C   0  0  0  0  0  0  0  0  0  0  0  0
    3.5724   -1.2375    0.0000 O   0  0  0  0  0  0  0  0  0  0  0  0
    4.2868   -1.6500    0.0000 C   0  0  0  0  0  0  0  0  0  0  0  0
    5.0013   -1.2375    0.0000 O   0  0  0  0  0  0  0  0  0  0  0  0
    4.2868   -2.4750    0.0000 C   0  0  0  0  0  0  0  0  0  0  0  0
    5.0013   -2.8875    0.0000 C   0  0  0  0  0  0  0  0  0  0  0  0
    5.0013   -3.7125    0.0000 C   0  0  0  0  0  0  0  0  0  0  0  0
    4.2868   -4.1250    0.0000 N   0  0  0  0  0  0  0  0  0  0  0  0
    3.5724   -3.7125    0.0000 C   0  0  0  0  0  0  0  0  0  0  0  0
    3.5724   -2.8875    0.0000 C   0  0  0  0  0  0  0  0  0  0  0  0
    4.2868   -4.9500    0.0000 C   0  0  0  0  0  0  0  0  0  0  0  0
    5.0013   -5.3625    0.0000 C   0  0  0  0  0  0  0  0  0  0  0  0
    5.0013   -6.1875    0.0000 C   0  0  0  0  0  0  0  0  0  0  0  0
    4.2868   -6.6000    0.0000 N   0  0  0  0  0  0  0  0  0  0  0  0
    4.2868   -7.4250    0.0000 C   0  0  0  0  0  0  0  0  0  0  0  0
    3.5724   -7.8375    0.0000 C   0  0  0  0  0  0  0  0  0  0  0  0
    3.5724   -8.6625    0.0000 C   0  0  0  0  0  0  0  0  0  0  0  0
    4.2868   -9.0750    0.0000 O   0  0  0  0  0  0  0  0  0  0  0  0
    2.8579   -9.0750    0.0000 C   0  0  0  0  0  0  0  0  0  0  0  0
    2.8579   -9.9000    0.0000 O   0  0  0  0  0  0  0  0  0  0  0  0
    2.1434  -10.3125    0.0000 C   0  0  0  0  0  0  0  0  0  0  0  0
    2.1434  -11.1375    0.0000 C   0  0  0  0  0  0  0  0  0  0  0  0
    2.1434   -8.6625    0.0000 C   0  0  0  0  0  0  0  0  0  0  0  0
    2.1434   -7.8375    0.0000 C   0  0  0  0  0  0  0  0  0  0  0  0
    1.4289   -7.4250    0.0000 Br  0  0  0  0  0  0  0  0  0  0  0  0
    2.8579   -7.4250    0.0000 C   0  0  0  0  0  0  0  0  0  0  0  0
    2.8579   -6.6000    0.0000 Br  0  0  0  0  0  0  0  0  0  0  0  0
    3.5724   -6.1875    0.0000 C   0  0  0  0  0  0  0  0  0  0  0  0
    3.5724   -5.3625    0.0000 C   0  0  0  0  0  0  0  0  0  0  0  0
  1  2  1  0  0  0  0
  2  3  1  0  0  0  0
  3  4  1  0  0  0  0
  4  5  2  0  0  0  0
  4  6  1  0  0  0  0
  6  7  1  0  0  0  0
  7  8  1  0  0  0  0
  8  9  1  0  0  0  0
  9 10  1  0  0  0  0
 10 11  1  0  0  0  0
  6 11  1  0  0  0  0
  9 12  1  0  0  0  0
 12 13  1  0  0  0  0
 13 14  1  0  0  0  0
 14 15  1  0  0  0  0
 15 16  1  0  0  0  0
 16 17  1  0  0  0  0
 17 18  2  0  0  0  0
 18 19  1  0  0  0  0
 18 20  1  0  0  0  0
 20 21  1  0  0  0  0
 21 22  1  0  0  0  0
 22 23  1  0  0  0  0
 20 24  2  0  0  0  0
 24 25  1  0  0  0  0
 25 26  1  0  0  0  0
 25 27  2  0  0  0  0
 17 27  1  0  0  0  0
 27 28  1  0  0  0  0
 15 29  1  0  0  0  0
 29 30  1  0  0  0  0
 12 30  1  0  0  0  0
M  END
> <ID>
CPD_4500

$$$$
CPD_4505
  Mrv1822 09091914012D          

 27 29  0  0  0  0            999 V2000
   -2.1434   -6.1875    0.0000 C   0  0  0  0  0  0  0  0  0  0  0  0
   -2.1434   -5.3625    0.0000 C   0  0  0  0  0  0  0  0  0  0  0  0
   -1.4289   -4.9500    0.0000 O   0  0  0  0  0  0  0  0  0  0  0  0
   -1.4289   -4.1250    0.0000 C   0  0  0  0  0  0  0  0  0  0  0  0
   -2.1434   -3.7125    0.0000 C   0  0  0  0  0  0  0  0  0  0  0  0
   -2.1434   -2.8875    0.0000 C   0  0  0  0  0  0  0  0  0  0  0  0
   -2.8579   -2.4750    0.0000 Br  0  0  0  0  0  0  0  0  0  0  0  0
   -1.4289   -2.4750    0.0000 C   0  0  0  0  0  0  0  0  0  0  0  0
   -1.4289   -1.6500    0.0000 Br  0  0  0  0  0  0  0  0  0  0  0  0
   -0.7145   -2.8875    0.0000 C   0  0  0  0  0  0  0  0  0  0  0  0
    0.0000   -2.4750    0.0000 C   0  0  0  0  0  0  0  0  0  0  0  0
    0.0000   -1.6500    0.0000 N   0  0  0  0  0  0  0  0  0  0  0  0
    0.7145   -1.2375    0.0000 C   0  0  0  0  0  0  0  0  0  0  0  0
    0.7145   -0.4125    0.0000 C   0  0  0  0  0  0  0  0  0  0  0  0
    1.4289    0.0000    0.0000 C   0  0  0  0  0  0  0  0  0  0  0  0
    2.1434   -0.4125    0.0000 C   0  0  0  0  0  0  0  0  0  0  0  0
    2.8579    0.0000    0.0000 N   0  0  0  0  0  0  0  0  0  0  0  0
    2.8579    0.8250    0.0000 C   0  0  0  0  0  0  0  0  0  0  0  0
    3.5724   -0.4125    0.0000 C   0  0  0  0  0  0  0  0  0  0  0  0
    4.2868   -0.0000    0.0000 O   0  0  0  0  0  0  0  0  0  0  0  0
    3.5724   -1.2375    0.0000 C   0  0  0  0  0  0  0  0  0  0  0  0
    4.2868   -1.6500    0.0000 C   0  0  0  0  0  0  0  0  0  0  0  0
    2.8579   -1.6500    0.0000 O   0  0  0  0  0  0  0  0  0  0  0  0
    2.1434   -1.2375    0.0000 C   0  0  0  0  0  0  0  0  0  0  0  0
    1.4289   -1.6500    0.0000 C   0  0  0  0  0  0  0  0  0  0  0  0
   -0.7145   -3.7125    0.0000 C   0  0  0  0  0  0  0  0  0  0  0  0
    0.0000   -4.1250    0.0000 O   0  0  0  0  0  0  0  0  0  0  0  0
  1  2  1  0  0  0  0
  2  3  1  0  0  0  0
  3  4  1  0  0  0  0
  4  5  2  0  0  0  0
  5  6  1  0  0  0  0
  6  7  1  0  0  0  0
  6  8  2  0  0  0  0
  8  9  1  0  0  0  0
  8 10  1  0  0  0  0
 10 11  1  0  0  0  0
 11 12  1  0  0  0  0
 12 13  1  0  0  0  0
 13 14  2  0  0  0  0
 14 15  1  0  0  0  0
 15 16  2  0  0  0  0
 16 17  1  0  0  0  0
 17 18  1  0  0  0  0
 17 19  1  0  0  0  0
 19 20  2  0  0  0  0
 19 21  1  0  0  0  0
 21 22  1  0  0  0  0
 21 23  1  0  0  0  0
 23 24  1  0  0  0  0
 16 24  1  0  0  0  0
 24 25  2  0  0  0  0
 13 25  1  0  0  0  0
 10 26  2  0  0  0  0
  4 26  1  0  0  0  0
 26 27  1  0  0  0  0
M  END
> <ID>
CPD_4505

$$$$
CPD_4510
  Mrv1822 09091914012D          

 21 23  0  0  0  0            999 V2000
    1.4289    0.8250    0.0000 C   0  0  0  0  0  0  0  0  0  0  0  0
    1.4289    0.0000    0.0000 C   0  0  0  0  0  0  0  0  0  0  0  0
    2.1434   -0.4125    0.0000 C   0  0  0  0  0  0  0  0  0  0  0  0
    2.8579    0.0000    0.0000 N   0  0  0  0  0  0  0  0  0  0  0  0
    3.5724   -0.4125    0.0000 C   0  0  0  0  0  0  0  0  0  0  0  0
    4.2868   -0.0000    0.0000 C   0  0  0  0  0  0  0  0  0  0  0  0
    3.5724   -1.2375    0.0000 C   0  0  0  0  0  0  0  0  0  0  0  0
    4.2868   -1.6500    0.0000 Br  0  0  0  0  0  0  0  0  0  0  0  0
    2.8579   -1.6500    0.0000 C   0  0  0  0  0  0  0  0  0  0  0  0
    2.8579   -2.4750    0.0000 N   0  0  0  0  0  0  0  0  0  0  0  0
    2.1434   -2.8875    0.0000 C   0  0  0  0  0  0  0  0  0  0  0  0
    2.1434   -3.7125    0.0000 N   0  0  0  0  0  0  0  0  0  0  0  0
    1.4289   -4.1250    0.0000 C   0  0  0  0  0  0  0  0  0  0  0  0
    1.4289   -4.9500    0.0000 O   0  0  0  0  0  0  0  0  0  0  0  0
    0.7145   -3.7125    0.0000 N   0  0  0  0  0  0  0  0  0  0  0  0
    0.7145   -2.8875    0.0000 C   0  0  0  0  0  0  0  0  0  0  0  0
    1.4289   -2.4750    0.0000 C   0  0  0  0  0  0  0  0  0  0  0  0
    2.1434   -1.2375    0.0000 C   0  0  0  0  0  0  0  0  0  0  0  0
    1.4289   -1.6500    0.0000 C   0  0  0  0  0  0  0  0  0  0  0  0
    0.7145   -1.2375    0.0000 C   0  0  0  0  0  0  0  0  0  0  0  0
    0.7145   -0.4125    0.0000 C   0  0  0  0  0  0  0  0  0  0  0  0
  1  2  1  0  0  0  0
  2  3  2  0  0  0  0
  3  4  1  0  0  0  0
  4  5  2  0  0  0  0
  5  6  1  0  0  0  0
  5  7  1  0  0  0  0
  7  8  1  0  0  0  0
  7  9  2  0  0  0  0
  9 10  1  0  0  0  0
 10 11  1  0  0  0  0
 11 12  2  0  0  0  0
 12 13  1  0  0  0  0
 13 14  2  0  0  0  0
 13 15  1  0  0  0  0
 15 16  1  0  0  0  0
 16 17  2  0  0  0  0
 11 17  1  0  0  0  0
  9 18  1  0  0  0  0
  3 18  1  0  0  0  0
 18 19  2  0  0  0  0
 19 20  1  0  0  0  0
 20 21  2  0  0  0  0
  2 21  1  0  0  0  0
M  END
> <ID>
CPD_4510

$$$$
CPD_4515
  Mrv1822 09091914012D          

 27 29  0  0  0  0            999 V2000
   -0.7145   -2.8875    0.0000 N   0  0  0  0  0  0  0  0  0  0  0  0
   -1.4289   -3.3000    0.0000 C   0  0  0  0  0  0  0  0  0  0  0  0
   -1.4289   -4.1250    0.0000 C   0  0  0  0  0  0  0  0  0  0  0  0
   -2.1434   -4.5375    0.0000 C   0  0  0  0  0  0  0  0  0  0  0  0
   -2.8579   -4.1250    0.0000 N   0  0  0  0  0  0  0  0  0  0  0  0
   -3.5724   -4.5375    0.0000 C   0  0  0  0  0  0  0  0  0  0  0  0
   -4.2868   -4.1250    0.0000 C   0  0  0  0  0  0  0  0  0  0  0  0
   -4.2868   -3.3000    0.0000 O   0  0  0  0  0  0  0  0  0  0  0  0
   -3.5724   -2.8875    0.0000 C   0  0  0  0  0  0  0  0  0  0  0  0
   -2.8579   -3.3000    0.0000 C   0  0  0  0  0  0  0  0  0  0  0  0
   -0.7145   -4.5375    0.0000 O   0  0  0  0  0  0  0  0  0  0  0  0
    0.0000   -4.1250    0.0000 C   0  0  0  0  0  0  0  0  0  0  0  0
    0.0000   -3.3000    0.0000 O   0  0  0  0  0  0  0  0  0  0  0  0
    0.7145   -4.5375    0.0000 C   0  0  0  0  0  0  0  0  0  0  0  0
    1.4289   -4.1250    0.0000 C   0  0  0  0  0  0  0  0  0  0  0  0
    2.1434   -4.5375    0.0000 C   0  0  0  0  0  0  0  0  0  0  0  0
    2.1434   -5.3625    0.0000 C   0  0  0  0  0  0  0  0  0  0  0  0
    1.4289   -5.7750    0.0000 C   0  0  0  0  0  0  0  0  0  0  0  0
    0.7145   -5.3625    0.0000 C   0  0  0  0  0  0  0  0  0  0  0  0
    2.8579   -4.1250    0.0000 C   0  0  0  0  0  0  0  0  0  0  0  0
    2.8579   -3.3000    0.0000 C   0  0  0  0  0  0  0  0  0  0  0  0
    3.5724   -2.8875    0.0000 C   0  0  0  0  0  0  0  0  0  0  0  0
    4.2868   -3.3000    0.0000 C   0  0  0  0  0  0  0  0  0  0  0  0
    5.0013   -2.8875    0.0000 C   0  0  0  0  0  0  0  0  0  0  0  0
    5.0013   -2.0625    0.0000 O   0  0  0  0  0  0  0  0  0  0  0  0
    4.2868   -4.1250    0.0000 C   0  0  0  0  0  0  0  0  0  0  0  0
    3.5724   -4.5375    0.0000 C   0  0  0  0  0  0  0  0  0  0  0  0
  1  2  1  0  0  0  0
  2  3  1  0  0  0  0
  3  4  1  0  0  0  0
  4  5  1  0  0  0  0
  5  6  1  0  0  0  0
  6  7  1  0  0  0  0
  7  8  1  0  0  0  0
  8  9  1  0  0  0  0
  9 10  1  0  0  0  0
  5 10  1  0  0  0  0
  3 11  1  0  0  0  0
 11 12  1  0  0  0  0
 12 13  2  0  0  0  0
 12 14  1  0  0  0  0
 14 15  2  0  0  0  0
 15 16  1  0  0  0  0
 16 17  2  0  0  0  0
 17 18  1  0  0  0  0
 18 19  2  0  0  0  0
 14 19  1  0  0  0  0
 16 20  1  0  0  0  0
 20 21  2  0  0  0  0
 21 22  1  0  0  0  0
 22 23  2  0  0  0  0
 23 24  1  0  0  0  0
 24 25  1  0  0  0  0
 23 26  1  0  0  0  0
 26 27  2  0  0  0  0
 20 27  1  0  0  0  0
M  END
> <ID>
CPD_4515

$$$$
CPD_4520
  Mrv1822 09091914012D          

 34 37  0  0  0  0            999 V2000
   -2.1434   -1.2375    0.0000 C   0  0  0  0  0  0  0  0  0  0  0  0
   -1.4289   -1.6500    0.0000 O   0  0  0  0  0  0  0  0  0  0  0  0
   -1.4289   -2.4750    0.0000 C   0  0  0  0  0  0  0  0  0  0  0  0
   -0.7145   -2.8875    0.0000 C   0  0  0  0  0  0  0  0  0  0  0  0
    0.0000   -2.4750    0.0000 O   0  0  0  0  0  0  0  0  0  0  0  0
    0.7145   -2.8875    0.0000 C   0  0  0  0  0  0  0  0  0  0  0  0
   -0.7145   -3.7125    0.0000 C   0  0  0  0  0  0  0  0  0  0  0  0
   -1.4289   -4.1250    0.0000 C   0  0  0  0  0  0  0  0  0  0  0  0
   -2.1434   -3.7125    0.0000 C   0  0  0  0  0  0  0  0  0  0  0  0
   -2.1434   -2.8875    0.0000 C   0  0  0  0  0  0  0  0  0  0  0  0
   -1.4289   -4.9500    0.0000 C   0  0  0  0  0  0  0  0  0  0  0  0
   -0.7145   -5.3625    0.0000 C   0  0  0  0  0  0  0  0  0  0  0  0
   -0.7145   -6.1875    0.0000 C   0  0  0  0  0  0  0  0  0  0  0  0
   -1.4289   -6.6000    0.0000 N   0  0  0  0  0  0  0  0  0  0  0  0
   -2.1434   -6.1875    0.0000 C   0  0  0  0  0  0  0  0  0  0  0  0
   -2.8579   -6.6000    0.0000 N   0  0  0  0  0  0  0  0  0  0  0  0
   -3.5724   -6.1875    0.0000 C   0  0  0  0  0  0  0  0  0  0  0  0
   -3.5724   -5.3625    0.0000 C   0  0  0  0  0  0  0  0  0  0  0  0
   -4.2868   -4.9500    0.0000 N   0  0  0  0  0  0  0  0  0  0  0  0
   -4.2868   -6.6000    0.0000 C   0  0  0  0  0  0  0  0  0  0  0  0
   -5.0013   -6.1875    0.0000 N   0  0  0  0  0  0  0  0  0  0  0  0
   -5.7158   -6.6000    0.0000 C   0  0  0  0  0  0  0  0  0  0  0  0
   -6.4302   -6.1875    0.0000 C   0  0  0  0  0  0  0  0  0  0  0  0
   -6.4302   -5.3625    0.0000 O   0  0  0  0  0  0  0  0  0  0  0  0
   -5.7158   -4.9500    0.0000 C   0  0  0  0  0  0  0  0  0  0  0  0
   -5.0013   -5.3625    0.0000 C   0  0  0  0  0  0  0  0  0  0  0  0
   -2.1434   -5.3625    0.0000 N   0  0  0  0  0  0  0  0  0  0  0  0
   -0.0000   -6.6000    0.0000 C   0  0  0  0  0  0  0  0  0  0  0  0
    0.7145   -6.1875    0.0000 C   0  0  0  0  0  0  0  0  0  0  0  0
    1.4289   -6.6000    0.0000 C   0  0  0  0  0  0  0  0  0  0  0  0
    1.4289   -7.4250    0.0000 C   0  0  0  0  0  0  0  0  0  0  0  0
    0.7145   -7.8375    0.0000 C   0  0  0  0  0  0  0  0  0  0  0  0
   -0.0000   -7.4250    0.0000 C   0  0  0  0  0  0  0  0  0  0  0  0
   -0.7145   -7.8375    0.0000 Cl  0  0  0  0  0  0  0  0  0  0  0  0
  1  2  1  0  0  0  0
  2  3  1  0  0  0  0
  3  4  2  0  0  0  0
  4  5  1  0  0  0  0
  5  6  1  0  0  0  0
  4  7  1  0  0  0  0
  7  8  2  0  0  0  0
  8  9  1  0  0  0  0
  9 10  2  0  0  0  0
  3 10  1  0  0  0  0
  8 11  1  0  0  0  0
 11 12  2  0  0  0  0
 12 13  1  0  0  0  0
 13 14  2  0  0  0  0
 14 15  1  0  0  0  0
 15 16  1  0  0  0  0
 16 17  1  0  0  0  0
 17 18  1  0  0  0  0
 18 19  1  0  0  0  0
 17 20  1  0  0  0  0
 20 21  1  0  0  0  0
 21 22  1  0  0  0  0
 22 23  1  0  0  0  0
 23 24  1  0  0  0  0
 24 25  1  0  0  0  0
 25 26  1  0  0  0  0
 21 26  1  0  0  0  0
 15 27  2  0  0  0  0
 11 27  1  0  0  0  0
 13 28  1  0  0  0  0
 28 29  2  0  0  0  0
 29 30  1  0  0  0  0
 30 31  2  0  0  0  0
 31 32  1  0  0  0  0
 32 33  2  0  0  0  0
 28 33  1  0  0  0  0
 33 34  1  0  0  0  0
M  END
> <ID>
CPD_4520

$$$$
CPD_4525
  Mrv1822 09091914012D          

 29 32  0  0  0  0            999 V2000
    1.3222    2.2902    0.0000 C   0  0  0  0  0  0  0  0  0  0  0  0
    2.0367    1.8777    0.0000 C   0  0  0  0  0  0  0  0  0  0  0  0
    2.7512    2.2902    0.0000 C   0  0  0  0  0  0  0  0  0  0  0  0
    3.4656    1.8777    0.0000 C   0  0  0  0  0  0  0  0  0  0  0  0
    3.4656    1.0527    0.0000 C   0  0  0  0  0  0  0  0  0  0  0  0
    2.7512    0.6402    0.0000 C   0  0  0  0  0  0  0  0  0  0  0  0
    2.0367    1.0527    0.0000 C   0  0  0  0  0  0  0  0  0  0  0  0
    4.1801    0.6402    0.0000 C   0  0  0  0  0  0  0  0  0  0  0  0
    4.8946    1.0527    0.0000 N   0  0  0  0  0  0  0  0  0  0  0  0
    5.6091    0.6402    0.0000 C   0  0  0  0  0  0  0  0  0  0  0  0
    6.3235    1.0527    0.0000 N   0  0  0  0  0  0  0  0  0  0  0  0
    7.0380    0.6402    0.0000 C   0  0  0  0  0  0  0  0  0  0  0  0
    7.0380   -0.1848    0.0000 C   0  0  0  0  0  0  0  0  0  0  0  0
    7.7525   -0.5973    0.0000 N   0  0  0  0  0  0  0  0  0  0  0  0
    7.7525    1.0527    0.0000 C   0  0  0  0  0  0  0  0  0  0  0  0
    8.4669    0.6402    0.0000 N   0  0  0  0  0  0  0  0  0  0  0  0
    9.1814    1.0527    0.0000 C   0  0  0  0  0  0  0  0  0  0  0  0
    9.8959    0.6402    0.0000 C   0  0  0  0  0  0  0  0  0  0  0  0
    9.8959   -0.1848    0.0000 O   0  0  0  0  0  0  0  0  0  0  0  0
    9.1814   -0.5973    0.0000 C   0  0  0  0  0  0  0  0  0  0  0  0
    8.4669   -0.1848    0.0000 C   0  0  0  0  0  0  0  0  0  0  0  0
    5.6091   -0.1848    0.0000 N   0  0  0  0  0  0  0  0  0  0  0  0
    4.8946   -0.5973    0.0000 C   0  0  0  0  0  0  0  0  0  0  0  0
    4.1801   -0.1848    0.0000 C   0  0  0  0  0  0  0  0  0  0  0  0
    4.8946   -1.4223    0.0000 C   0  0  0  0  0  0  0  0  0  0  0  0
    5.5620   -1.9072    0.0000 C   0  0  0  0  0  0  0  0  0  0  0  0
    5.3071   -2.6919    0.0000 C   0  0  0  0  0  0  0  0  0  0  0  0
    4.4821   -2.6919    0.0000 C   0  0  0  0  0  0  0  0  0  0  0  0
    4.2272   -1.9072    0.0000 O   0  0  0  0  0  0  0  0  0  0  0  0
  1  2  1  0  0  0  0
  2  3  2  0  0  0  0
  3  4  1  0  0  0  0
  4  5  2  0  0  0  0
  5  6  1  0  0  0  0
  6  7  2  0  0  0  0
  2  7  1  0  0  0  0
  5  8  1  0  0  0  0
  8  9  2  0  0  0  0
  9 10  1  0  0  0  0
 10 11  1  0  0  0  0
 11 12  1  0  0  0  0
 12 13  1  0  0  0  0
 13 14  1  0  0  0  0
 12 15  1  0  0  0  0
 15 16  1  0  0  0  0
 16 17  1  0  0  0  0
 17 18  1  0  0  0  0
 18 19  1  0  0  0  0
 19 20  1  0  0  0  0
 20 21  1  0  0  0  0
 16 21  1  0  0  0  0
 10 22  2  0  0  0  0
 22 23  1  0  0  0  0
 23 24  2  0  0  0  0
  8 24  1  0  0  0  0
 23 25  1  0  0  0  0
 25 26  2  0  0  0  0
 26 27  1  0  0  0  0
 27 28  2  0  0  0  0
 28 29  1  0  0  0  0
 25 29  1  0  0  0  0
M  END
> <ID>
CPD_4525

$$$$
CPD_4530
  Mrv1822 09091914012D          

 23 25  0  0  0  0            999 V2000
   -0.7145    1.2375    0.0000 N   0  0  0  0  0  0  0  0  0  0  0  0
    0.0000    0.8250    0.0000 C   0  0  0  0  0  0  0  0  0  0  0  0
    0.0000   -0.0000    0.0000 C   0  0  0  0  0  0  0  0  0  0  0  0
   -0.7145   -0.4125    0.0000 C   0  0  0  0  0  0  0  0  0  0  0  0
   -1.4289   -0.0000    0.0000 N   0  0  0  0  0  0  0  0  0  0  0  0
   -2.1434   -0.4125    0.0000 C   0  0  0  0  0  0  0  0  0  0  0  0
   -2.8579   -0.0000    0.0000 C   0  0  0  0  0  0  0  0  0  0  0  0
   -2.8579    0.8250    0.0000 O   0  0  0  0  0  0  0  0  0  0  0  0
   -2.1434    1.2375    0.0000 C   0  0  0  0  0  0  0  0  0  0  0  0
   -1.4289    0.8250    0.0000 C   0  0  0  0  0  0  0  0  0  0  0  0
    0.7145   -0.4125    0.0000 O   0  0  0  0  0  0  0  0  0  0  0  0
    0.7145   -1.2375    0.0000 C   0  0  0  0  0  0  0  0  0  0  0  0
    1.3819   -1.7224    0.0000 C   0  0  0  0  0  0  0  0  0  0  0  0
    1.1270   -2.5070    0.0000 C   0  0  0  0  0  0  0  0  0  0  0  0
    0.3020   -2.5070    0.0000 N   0  0  0  0  0  0  0  0  0  0  0  0
    0.0470   -1.7224    0.0000 O   0  0  0  0  0  0  0  0  0  0  0  0
    1.6119   -3.1745    0.0000 C   0  0  0  0  0  0  0  0  0  0  0  0
    2.4324   -3.0882    0.0000 C   0  0  0  0  0  0  0  0  0  0  0  0
    2.9173   -3.7557    0.0000 C   0  0  0  0  0  0  0  0  0  0  0  0
    2.5817   -4.5094    0.0000 C   0  0  0  0  0  0  0  0  0  0  0  0
    3.0667   -5.1768    0.0000 Cl  0  0  0  0  0  0  0  0  0  0  0  0
    1.7613   -4.5956    0.0000 C   0  0  0  0  0  0  0  0  0  0  0  0
    1.2763   -3.9282    0.0000 C   0  0  0  0  0  0  0  0  0  0  0  0
  1  2  1  0  0  0  0
  2  3  1  0  0  0  0
  3  4  1  0  0  0  0
  4  5  1  0  0  0  0
  5  6  1  0  0  0  0
  6  7  1  0  0  0  0
  7  8  1  0  0  0  0
  8  9  1  0  0  0  0
  9 10  1  0  0  0  0
  5 10  1  0  0  0  0
  3 11  1  0  0  0  0
 11 12  1  0  0  0  0
 12 13  2  0  0  0  0
 13 14  1  0  0  0  0
 14 15  2  0  0  0  0
 15 16  1  0  0  0  0
 12 16  1  0  0  0  0
 14 17  1  0  0  0  0
 17 18  2  0  0  0  0
 18 19  1  0  0  0  0
 19 20  2  0  0  0  0
 20 21  1  0  0  0  0
 20 22  1  0  0  0  0
 22 23  2  0  0  0  0
 17 23  1  0  0  0  0
M  END
> <ID>
CPD_4530

$$$$
CPD_4535
  Mrv1822 09091914012D          

 25 27  0  0  0  0            999 V2000
   -4.2868   -2.4750    0.0000 N   0  0  0  0  0  0  0  0  0  0  0  0
   -4.2868   -1.6500    0.0000 C   0  0  0  0  0  0  0  0  0  0  0  0
   -3.5724   -1.2375    0.0000 C   0  0  0  0  0  0  0  0  0  0  0  0
   -2.8579   -1.6500    0.0000 C   0  0  0  0  0  0  0  0  0  0  0  0
   -2.8579   -2.4750    0.0000 N   0  0  0  0  0  0  0  0  0  0  0  0
   -2.1434   -2.8875    0.0000 C   0  0  0  0  0  0  0  0  0  0  0  0
   -2.1434   -3.7125    0.0000 C   0  0  0  0  0  0  0  0  0  0  0  0
   -2.8579   -4.1250    0.0000 O   0  0  0  0  0  0  0  0  0  0  0  0
   -3.5724   -3.7125    0.0000 C   0  0  0  0  0  0  0  0  0  0  0  0
   -3.5724   -2.8875    0.0000 C   0  0  0  0  0  0  0  0  0  0  0  0
   -3.5724   -0.4125    0.0000 O   0  0  0  0  0  0  0  0  0  0  0  0
   -2.8579   -0.0000    0.0000 C   0  0  0  0  0  0  0  0  0  0  0  0
   -2.8579    0.8250    0.0000 C   0  0  0  0  0  0  0  0  0  0  0  0
   -2.1434    1.2375    0.0000 C   0  0  0  0  0  0  0  0  0  0  0  0
   -1.4289    0.8250    0.0000 C   0  0  0  0  0  0  0  0  0  0  0  0
   -1.4289   -0.0000    0.0000 C   0  0  0  0  0  0  0  0  0  0  0  0
   -2.1434   -0.4125    0.0000 C   0  0  0  0  0  0  0  0  0  0  0  0
   -3.5724    1.2375    0.0000 C   0  0  0  0  0  0  0  0  0  0  0  0
   -4.2868    0.8250    0.0000 C   0  0  0  0  0  0  0  0  0  0  0  0
   -5.0013    1.2375    0.0000 C   0  0  0  0  0  0  0  0  0  0  0  0
   -5.0013    2.0625    0.0000 C   0  0  0  0  0  0  0  0  0  0  0  0
   -4.2868    2.4750    0.0000 C   0  0  0  0  0  0  0  0  0  0  0  0
   -3.5724    2.0625    0.0000 C   0  0  0  0  0  0  0  0  0  0  0  0
   -5.7158    2.4750    0.0000 C   0  0  0  0  0  0  0  0  0  0  0  0
   -6.4302    2.8875    0.0000 N   0  0  0  0  0  0  0  0  0  0  0  0
  1  2  1  0  0  0  0
  2  3  1  0  0  0  0
  3  4  1  0  0  0  0
  4  5  1  0  0  0  0
  5  6  1  0  0  0  0
  6  7  1  0  0  0  0
  7  8  1  0  0  0  0
  8  9  1  0  0  0  0
  9 10  1  0  0  0  0
  5 10  1  0  0  0  0
  3 11  1  0  0  0  0
 11 12  1  0  0  0  0
 12 13  2  0  0  0  0
 13 14  1  0  0  0  0
 14 15  2  0  0  0  0
 15 16  1  0  0  0  0
 16 17  2  0  0  0  0
 12 17  1  0  0  0  0
 13 18  1  0  0  0  0
 18 19  2  0  0  0  0
 19 20  1  0  0  0  0
 20 21  2  0  0  0  0
 21 22  1  0  0  0  0
 22 23  2  0  0  0  0
 18 23  1  0  0  0  0
 21 24  1  0  0  0  0
 24 25  3  0  0  0  0
M  END
> <ID>
CPD_4535

$$$$
CPD_4540
  Mrv1822 09091914012D          

 37 41  0  0  0  0            999 V2000
   -0.3984    0.7541    0.0000 C   0  0  0  0  0  0  0  0  0  0  0  0
   -0.1435   -0.0305    0.0000 N   0  0  0  0  0  0  0  0  0  0  0  0
   -0.6284   -0.6979    0.0000 C   0  0  0  0  0  0  0  0  0  0  0  0
   -1.4534   -0.6979    0.0000 O   0  0  0  0  0  0  0  0  0  0  0  0
   -0.1435   -1.3654    0.0000 C   0  0  0  0  0  0  0  0  0  0  0  0
   -0.8580   -1.7779    0.0000 C   0  0  0  0  0  0  0  0  0  0  0  0
   -1.5724   -1.3654    0.0000 C   0  0  0  0  0  0  0  0  0  0  0  0
   -1.8274   -0.5808    0.0000 O   0  0  0  0  0  0  0  0  0  0  0  0
   -2.2869   -1.7779    0.0000 C   0  0  0  0  0  0  0  0  0  0  0  0
   -3.0406   -1.4423    0.0000 C   0  0  0  0  0  0  0  0  0  0  0  0
   -3.5926   -2.0554    0.0000 C   0  0  0  0  0  0  0  0  0  0  0  0
   -3.1801   -2.7699    0.0000 C   0  0  0  0  0  0  0  0  0  0  0  0
   -2.3732   -2.5984    0.0000 O   0  0  0  0  0  0  0  0  0  0  0  0
    0.1921   -2.1191    0.0000 N   0  0  0  0  0  0  0  0  0  0  0  0
   -0.2929   -2.7865    0.0000 C   0  0  0  0  0  0  0  0  0  0  0  0
   -1.1134   -2.7003    0.0000 O   0  0  0  0  0  0  0  0  0  0  0  0
    0.0427   -3.5402    0.0000 O   0  0  0  0  0  0  0  0  0  0  0  0
    0.4552   -4.2546    0.0000 C   0  0  0  0  0  0  0  0  0  0  0  0
    0.0427   -4.9691    0.0000 C   0  0  0  0  0  0  0  0  0  0  0  0
    0.4552   -5.6836    0.0000 C   0  0  0  0  0  0  0  0  0  0  0  0
    0.0427   -6.3981    0.0000 C   0  0  0  0  0  0  0  0  0  0  0  0
   -0.7823   -6.3981    0.0000 C   0  0  0  0  0  0  0  0  0  0  0  0
   -1.1948   -5.6836    0.0000 C   0  0  0  0  0  0  0  0  0  0  0  0
   -0.7823   -4.9691    0.0000 C   0  0  0  0  0  0  0  0  0  0  0  0
    0.8051   -2.6711    0.0000 C   0  0  0  0  0  0  0  0  0  0  0  0
    1.5196   -3.0836    0.0000 C   0  0  0  0  0  0  0  0  0  0  0  0
    1.3481   -3.8906    0.0000 C   0  0  0  0  0  0  0  0  0  0  0  0
    0.5276   -3.9768    0.0000 C   0  0  0  0  0  0  0  0  0  0  0  0
    0.1921   -3.2231    0.0000 C   0  0  0  0  0  0  0  0  0  0  0  0
    1.2901   -2.0037    0.0000 C   0  0  0  0  0  0  0  0  0  0  0  0
    1.9575   -1.5187    0.0000 N   0  0  0  0  0  0  0  0  0  0  0  0
    0.6411   -1.1104    0.0000 C   0  0  0  0  0  0  0  0  0  0  0  0
    0.6411   -0.2854    0.0000 C   0  0  0  0  0  0  0  0  0  0  0  0
    1.3556    0.1271    0.0000 C   0  0  0  0  0  0  0  0  0  0  0  0
    2.0701   -0.2854    0.0000 C   0  0  0  0  0  0  0  0  0  0  0  0
    2.0701   -1.1104    0.0000 C   0  0  0  0  0  0  0  0  0  0  0  0
    1.3556   -1.5229    0.0000 C   0  0  0  0  0  0  0  0  0  0  0  0
  1  2  1  0  0  0  0
  2  3  1  0  0  0  0
  3  4  2  0  0  0  0
  3  5  1  0  0  0  0
  5  6  1  0  0  0  0
  6  7  1  0  0  0  0
  7  8  2  0  0  0  0
  7  9  1  0  0  0  0
  9 10  2  0  0  0  0
 10 11  1  0  0  0  0
 11 12  2  0  0  0  0
 12 13  1  0  0  0  0
  9 13  1  0  0  0  0
  5 14  1  0  0  0  0
 14 15  1  0  0  0  0
 15 16  2  0  0  0  0
 15 17  1  0  0  0  0
 17 18  1  0  0  0  0
 18 19  1  0  0  0  0
 19 20  2  0  0  0  0
 20 21  1  0  0  0  0
 21 22  2  0  0  0  0
 22 23  1  0  0  0  0
 23 24  2  0  0  0  0
 19 24  1  0  0  0  0
 14 25  1  0  0  0  0
 25 26  1  0  0  0  0
 26 27  1  0  0  0  0
 27 28  1  0  0  0  0
 28 29  1  0  0  0  0
 25 29  1  0  0  0  0
 25 30  1  0  0  0  0
 30 31  3  0  0  0  0
  5 32  1  0  0  0  0
 32 33  2  0  0  0  0
  2 33  1  0  0  0  0
 33 34  1  0  0  0  0
 34 35  2  0  0  0  0
 35 36  1  0  0  0  0
 36 37  2  0  0  0  0
 32 37  1  0  0  0  0
M  END
> <ID>
CPD_4540

$$$$
CPD_4545
  Mrv1822 09091914012D          

 30 34  0  0  0  0            999 V2000
   -1.0159   -4.1587    0.0000 C   0  0  0  0  0  0  0  0  0  0  0  0
   -0.7610   -3.3741    0.0000 N   0  0  0  0  0  0  0  0  0  0  0  0
   -1.2459   -2.7066    0.0000 C   0  0  0  0  0  0  0  0  0  0  0  0
   -2.0709   -2.7066    0.0000 O   0  0  0  0  0  0  0  0  0  0  0  0
   -0.7610   -2.0392    0.0000 C   0  0  0  0  0  0  0  0  0  0  0  0
   -1.4755   -1.6267    0.0000 C   0  0  0  0  0  0  0  0  0  0  0  0
   -2.1899   -2.0392    0.0000 C   0  0  0  0  0  0  0  0  0  0  0  0
   -2.4449   -2.8238    0.0000 O   0  0  0  0  0  0  0  0  0  0  0  0
   -2.9044   -1.6267    0.0000 C   0  0  0  0  0  0  0  0  0  0  0  0
   -3.6581   -1.9622    0.0000 C   0  0  0  0  0  0  0  0  0  0  0  0
   -4.2101   -1.3492    0.0000 C   0  0  0  0  0  0  0  0  0  0  0  0
   -3.7976   -0.6347    0.0000 C   0  0  0  0  0  0  0  0  0  0  0  0
   -2.9906   -0.8062    0.0000 O   0  0  0  0  0  0  0  0  0  0  0  0
   -0.4254   -1.2855    0.0000 N   0  0  0  0  0  0  0  0  0  0  0  0
    0.3815   -1.1140    0.0000 C   0  0  0  0  0  0  0  0  0  0  0  0
    0.4678   -0.2935    0.0000 C   0  0  0  0  0  0  0  0  0  0  0  0
   -0.2859    0.0420    0.0000 C   0  0  0  0  0  0  0  0  0  0  0  0
   -0.3721    0.8625    0.0000 C   0  0  0  0  0  0  0  0  0  0  0  0
    0.2953    1.3475    0.0000 C   0  0  0  0  0  0  0  0  0  0  0  0
    1.0490    1.0119    0.0000 C   0  0  0  0  0  0  0  0  0  0  0  0
    1.1352    0.1914    0.0000 C   0  0  0  0  0  0  0  0  0  0  0  0
   -0.8379   -0.5710    0.0000 C   0  0  0  0  0  0  0  0  0  0  0  0
   -1.5104   -0.0931    0.0000 C   0  0  0  0  0  0  0  0  0  0  0  0
   -1.5951   -0.8987    0.0000 C   0  0  0  0  0  0  0  0  0  0  0  0
    0.0236   -2.2941    0.0000 C   0  0  0  0  0  0  0  0  0  0  0  0
    0.0236   -3.1191    0.0000 C   0  0  0  0  0  0  0  0  0  0  0  0
    0.7381   -3.5316    0.0000 C   0  0  0  0  0  0  0  0  0  0  0  0
    1.4526   -3.1191    0.0000 C   0  0  0  0  0  0  0  0  0  0  0  0
    1.4526   -2.2941    0.0000 C   0  0  0  0  0  0  0  0  0  0  0  0
    0.7381   -1.8816    0.0000 C   0  0  0  0  0  0  0  0  0  0  0  0
  1  2  1  0  0  0  0
  2  3  1  0  0  0  0
  3  4  2  0  0  0  0
  3  5  1  0  0  0  0
  5  6  1  0  0  0  0
  6  7  1  0  0  0  0
  7  8  2  0  0  0  0
  7  9  1  0  0  0  0
  9 10  2  0  0  0  0
 10 11  1  0  0  0  0
 11 12  2  0  0  0  0
 12 13  1  0  0  0  0
  9 13  1  0  0  0  0
  5 14  1  0  0  0  0
 14 15  1  0  0  0  0
 15 16  1  0  0  0  0
 16 17  2  0  0  0  0
 17 18  1  0  0  0  0
 18 19  2  0  0  0  0
 19 20  1  0  0  0  0
 20 21  2  0  0  0  0
 16 21  1  0  0  0  0
 17 22  1  0  0  0  0
 14 22  1  0  0  0  0
 22 23  1  0  0  0  0
 22 24  1  0  0  0  0
  5 25  1  0  0  0  0
 25 26  2  0  0  0  0
  2 26  1  0  0  0  0
 26 27  1  0  0  0  0
 27 28  2  0  0  0  0
 28 29  1  0  0  0  0
 29 30  2  0  0  0  0
 25 30  1  0  0  0  0
M  END
> <ID>
CPD_4545

$$$$
CPD_4550
  Mrv1822 09091914012D          

 21 22  0  0  0  0            999 V2000
   -1.0164   -1.7605    0.0000 C   0  0  0  0  0  0  0  0  0  0  0  0
   -1.4289   -2.4750    0.0000 C   0  0  0  0  0  0  0  0  0  0  0  0
   -1.0164   -3.1895    0.0000 N   0  0  0  0  0  0  0  0  0  0  0  0
   -0.1914   -3.1895    0.0000 C   0  0  0  0  0  0  0  0  0  0  0  0
    0.2211   -2.4750    0.0000 C   0  0  0  0  0  0  0  0  0  0  0  0
    1.0461   -2.4750    0.0000 O   0  0  0  0  0  0  0  0  0  0  0  0
    1.4586   -1.7605    0.0000 C   0  0  0  0  0  0  0  0  0  0  0  0
    1.0461   -1.0461    0.0000 C   0  0  0  0  0  0  0  0  0  0  0  0
    1.4586   -0.3316    0.0000 C   0  0  0  0  0  0  0  0  0  0  0  0
    2.2836   -0.3316    0.0000 C   0  0  0  0  0  0  0  0  0  0  0  0
    2.6961    0.3829    0.0000 Cl  0  0  0  0  0  0  0  0  0  0  0  0
    2.6961   -1.0461    0.0000 C   0  0  0  0  0  0  0  0  0  0  0  0
    2.2836   -1.7605    0.0000 C   0  0  0  0  0  0  0  0  0  0  0  0
   -1.4289   -3.9039    0.0000 C   0  0  0  0  0  0  0  0  0  0  0  0
   -1.8414   -4.6184    0.0000 C   0  0  0  0  0  0  0  0  0  0  0  0
   -2.5559   -4.2059    0.0000 N   0  0  0  0  0  0  0  0  0  0  0  0
   -2.1434   -3.4914    0.0000 C   0  0  0  0  0  0  0  0  0  0  0  0
   -0.7145   -4.3164    0.0000 C   0  0  0  0  0  0  0  0  0  0  0  0
    0.0000   -4.7289    0.0000 F   0  0  0  0  0  0  0  0  0  0  0  0
   -1.1270   -5.0309    0.0000 F   0  0  0  0  0  0  0  0  0  0  0  0
   -0.3020   -3.6020    0.0000 F   0  0  0  0  0  0  0  0  0  0  0  0
  1  2  1  0  0  0  0
  2  3  1  0  0  0  0
  3  4  1  0  0  0  0
  4  5  1  0  0  0  0
  5  6  1  0  0  0  0
  6  7  1  0  0  0  0
  7  8  2  0  0  0  0
  8  9  1  0  0  0  0
  9 10  2  0  0  0  0
 10 11  1  0  0  0  0
 10 12  1  0  0  0  0
 12 13  2  0  0  0  0
  7 13  1  0  0  0  0
  3 14  1  0  0  0  0
 14 15  1  0  0  0  0
 15 16  1  0  0  0  0
 16 17  1  0  0  0  0
 14 17  1  0  0  0  0
 14 18  1  0  0  0  0
 18 19  1  0  0  0  0
 18 20  1  0  0  0  0
 18 21  1  0  0  0  0
M  END
> <ID>
CPD_4550

$$$$
CPD_4555
  Mrv1822 09091914012D          

 28 31  0  0  0  0            999 V2000
    2.7845   -0.1271    0.0000 C   0  0  0  0  0  0  0  0  0  0  0  0
    2.7845    0.6979    0.0000 O   0  0  0  0  0  0  0  0  0  0  0  0
    2.0701    1.1104    0.0000 C   0  0  0  0  0  0  0  0  0  0  0  0
    1.3556    0.6979    0.0000 N   0  0  0  0  0  0  0  0  0  0  0  0
    0.6411    1.1104    0.0000 C   0  0  0  0  0  0  0  0  0  0  0  0
    0.6411    1.9354    0.0000 C   0  0  0  0  0  0  0  0  0  0  0  0
   -0.1435    2.1904    0.0000 C   0  0  0  0  0  0  0  0  0  0  0  0
   -0.3984    2.9750    0.0000 N   0  0  0  0  0  0  0  0  0  0  0  0
    0.1536    3.5881    0.0000 C   0  0  0  0  0  0  0  0  0  0  0  0
    0.7056    4.2012    0.0000 C   0  0  0  0  0  0  0  0  0  0  0  0
    1.3187    3.6492    0.0000 N   0  0  0  0  0  0  0  0  0  0  0  0
    0.7667    3.0361    0.0000 C   0  0  0  0  0  0  0  0  0  0  0  0
   -0.4595    4.1401    0.0000 C   0  0  0  0  0  0  0  0  0  0  0  0
   -1.0726    4.6922    0.0000 F   0  0  0  0  0  0  0  0  0  0  0  0
    0.0925    4.7532    0.0000 F   0  0  0  0  0  0  0  0  0  0  0  0
   -1.0115    3.5270    0.0000 F   0  0  0  0  0  0  0  0  0  0  0  0
   -0.6284    1.5229    0.0000 C   0  0  0  0  0  0  0  0  0  0  0  0
   -0.1435    0.8555    0.0000 S   0  0  0  0  0  0  0  0  0  0  0  0
   -1.4534    1.5229    0.0000 C   0  0  0  0  0  0  0  0  0  0  0  0
   -1.8659    2.2374    0.0000 O   0  0  0  0  0  0  0  0  0  0  0  0
   -1.8659    0.8085    0.0000 N   0  0  0  0  0  0  0  0  0  0  0  0
   -2.6909    0.8085    0.0000 C   0  0  0  0  0  0  0  0  0  0  0  0
   -3.4054    0.3960    0.0000 C   0  0  0  0  0  0  0  0  0  0  0  0
   -3.4054    1.2210    0.0000 C   0  0  0  0  0  0  0  0  0  0  0  0
    1.3556    2.3479    0.0000 C   0  0  0  0  0  0  0  0  0  0  0  0
    1.3556    3.1729    0.0000 C   0  0  0  0  0  0  0  0  0  0  0  0
    2.0701    1.9354    0.0000 C   0  0  0  0  0  0  0  0  0  0  0  0
    2.7845    2.3479    0.0000 Cl  0  0  0  0  0  0  0  0  0  0  0  0
  1  2  1  0  0  0  0
  2  3  1  0  0  0  0
  3  4  2  0  0  0  0
  4  5  1  0  0  0  0
  5  6  2  0  0  0  0
  6  7  1  0  0  0  0
  7  8  1  0  0  0  0
  8  9  1  0  0  0  0
  9 10  1  0  0  0  0
 10 11  1  0  0  0  0
 11 12  1  0  0  0  0
  9 12  1  0  0  0  0
  9 13  1  0  0  0  0
 13 14  1  0  0  0  0
 13 15  1  0  0  0  0
 13 16  1  0  0  0  0
  7 17  2  0  0  0  0
 17 18  1  0  0  0  0
  5 18  1  0  0  0  0
 17 19  1  0  0  0  0
 19 20  2  0  0  0  0
 19 21  1  0  0  0  0
 21 22  1  0  0  0  0
 22 23  1  0  0  0  0
 23 24  1  0  0  0  0
 22 24  1  0  0  0  0
  6 25  1  0  0  0  0
 25 26  1  0  0  0  0
 25 27  2  0  0  0  0
  3 27  1  0  0  0  0
 27 28  1  0  0  0  0
M  END
> <ID>
CPD_4555

$$$$
CPD_4560
  Mrv1822 09091914012D          

 21 22  0  0  0  0            999 V2000
    1.4481   -1.7915    0.0000 C   0  0  0  0  0  0  0  0  0  0  0  0
    1.6616   -2.5884    0.0000 N   0  0  0  0  0  0  0  0  0  0  0  0
    2.4585   -2.8020    0.0000 C   0  0  0  0  0  0  0  0  0  0  0  0
    3.0419   -2.2186    0.0000 C   0  0  0  0  0  0  0  0  0  0  0  0
    2.8284   -1.4217    0.0000 C   0  0  0  0  0  0  0  0  0  0  0  0
    3.4117   -0.8383    0.0000 C   0  0  0  0  0  0  0  0  0  0  0  0
    4.2086   -1.0519    0.0000 C   0  0  0  0  0  0  0  0  0  0  0  0
    4.7920   -0.4685    0.0000 C   0  0  0  0  0  0  0  0  0  0  0  0
    4.4221   -1.8488    0.0000 C   0  0  0  0  0  0  0  0  0  0  0  0
    3.8388   -2.4321    0.0000 C   0  0  0  0  0  0  0  0  0  0  0  0
    1.0783   -3.1718    0.0000 C   0  0  0  0  0  0  0  0  0  0  0  0
    1.2918   -3.9687    0.0000 N   0  0  0  0  0  0  0  0  0  0  0  0
    0.2814   -2.9583    0.0000 N   0  0  0  0  0  0  0  0  0  0  0  0
   -0.3020   -3.5416    0.0000 C   0  0  0  0  0  0  0  0  0  0  0  0
   -0.8853   -4.1250    0.0000 C   0  0  0  0  0  0  0  0  0  0  0  0
   -0.3020   -4.7084    0.0000 N   0  0  0  0  0  0  0  0  0  0  0  0
    0.2814   -4.1250    0.0000 C   0  0  0  0  0  0  0  0  0  0  0  0
   -0.8853   -2.9583    0.0000 C   0  0  0  0  0  0  0  0  0  0  0  0
   -1.4687   -2.3749    0.0000 F   0  0  0  0  0  0  0  0  0  0  0  0
   -0.3020   -2.3749    0.0000 F   0  0  0  0  0  0  0  0  0  0  0  0
   -1.4687   -3.5416    0.0000 F   0  0  0  0  0  0  0  0  0  0  0  0
  1  2  1  0  0  0  0
  2  3  1  0  0  0  0
  3  4  1  0  0  0  0
  4  5  2  0  0  0  0
  5  6  1  0  0  0  0
  6  7  2  0  0  0  0
  7  8  1  0  0  0  0
  7  9  1  0  0  0  0
  9 10  2  0  0  0  0
  4 10  1  0  0  0  0
  2 11  1  0  0  0  0
 11 12  1  0  0  0  0
 11 13  2  0  0  0  0
 13 14  1  4  0  0  0
 14 15  1  0  0  0  0
 15 16  1  0  0  0  0
 16 17  1  0  0  0  0
 14 17  1  0  0  0  0
 14 18  1  0  0  0  0
 18 19  1  0  0  0  0
 18 20  1  0  0  0  0
 18 21  1  0  0  0  0
M  END
> <ID>
CPD_4560

$$$$
CPD_4565
  Mrv1822 09091914012D          

 37 41  0  0  1  0            999 V2000
   -1.6559   -5.6861    0.0000 C   0  0  0  0  0  0  0  0  0  0  0  0
   -1.4009   -4.9015    0.0000 N   0  0  0  0  0  0  0  0  0  0  0  0
   -1.8858   -4.2340    0.0000 C   0  0  0  0  0  0  0  0  0  0  0  0
   -2.7108   -4.2340    0.0000 O   0  0  0  0  0  0  0  0  0  0  0  0
   -1.4009   -3.5666    0.0000 C   0  0  0  0  0  0  0  0  0  0  0  0
   -2.1154   -3.1541    0.0000 C   0  0  0  0  0  0  0  0  0  0  0  0
   -2.1154   -2.3291    0.0000 C   0  0  0  0  0  0  0  0  0  0  0  0
   -1.4009   -1.9166    0.0000 O   0  0  0  0  0  0  0  0  0  0  0  0
   -2.8299   -1.9166    0.0000 C   0  0  0  0  0  0  0  0  0  0  0  0
   -2.8299   -1.0916    0.0000 C   0  0  0  0  0  0  0  0  0  0  0  0
   -3.5443   -0.6791    0.0000 C   0  0  0  0  0  0  0  0  0  0  0  0
   -4.2588   -1.0916    0.0000 C   0  0  0  0  0  0  0  0  0  0  0  0
   -4.9733   -0.6791    0.0000 O   0  0  0  0  0  0  0  0  0  0  0  0
   -4.9733    0.1459    0.0000 C   0  0  0  0  0  0  0  0  0  0  0  0
   -4.2588    0.5584    0.0000 C   0  0  0  0  0  0  0  0  0  0  0  0
   -3.5443    0.1459    0.0000 O   0  0  0  0  0  0  0  0  0  0  0  0
   -4.2588   -1.9166    0.0000 C   0  0  0  0  0  0  0  0  0  0  0  0
   -3.5443   -2.3291    0.0000 C   0  0  0  0  0  0  0  0  0  0  0  0
   -1.0654   -2.8129    0.0000 O   0  0  0  0  0  0  0  0  0  0  0  0
   -0.2449   -2.7267    0.0000 C   0  0  0  0  0  0  0  0  0  0  0  0
    0.4226   -3.2116    0.0000 O   0  0  0  0  0  0  0  0  0  0  0  0
    0.0907   -1.9730    0.0000 C   0  0  1  0  0  0  0  0  0  0  0  0
   -0.3942   -1.3056    0.0000 N   0  0  0  0  0  0  0  0  0  0  0  0
    0.9112   -1.8868    0.0000 C   0  0  0  0  0  0  0  0  0  0  0  0
    1.2467   -1.1331    0.0000 C   0  0  0  0  0  0  0  0  0  0  0  0
    2.0672   -1.0469    0.0000 C   0  0  0  0  0  0  0  0  0  0  0  0
    2.4028   -0.2932    0.0000 C   0  0  0  0  0  0  0  0  0  0  0  0
    3.2232   -0.2069    0.0000 C   0  0  0  0  0  0  0  0  0  0  0  0
    3.7082   -0.8744    0.0000 C   0  0  0  0  0  0  0  0  0  0  0  0
    3.3726   -1.6281    0.0000 C   0  0  0  0  0  0  0  0  0  0  0  0
    2.5521   -1.7143    0.0000 C   0  0  0  0  0  0  0  0  0  0  0  0
   -0.6163   -3.8215    0.0000 C   0  0  0  0  0  0  0  0  0  0  0  0
   -0.6163   -4.6465    0.0000 C   0  0  0  0  0  0  0  0  0  0  0  0
    0.0982   -5.0590    0.0000 C   0  0  0  0  0  0  0  0  0  0  0  0
    0.8126   -4.6465    0.0000 C   0  0  0  0  0  0  0  0  0  0  0  0
    0.8126   -3.8215    0.0000 C   0  0  0  0  0  0  0  0  0  0  0  0
    0.0982   -3.4090    0.0000 C   0  0  0  0  0  0  0  0  0  0  0  0
  1  2  1  0  0  0  0
  2  3  1  0  0  0  0
  3  4  2  0  0  0  0
  3  5  1  0  0  0  0
  5  6  1  0  0  0  0
  6  7  1  0  0  0  0
  7  8  2  0  0  0  0
  7  9  1  0  0  0  0
  9 10  2  0  0  0  0
 10 11  1  0  0  0  0
 11 12  2  0  0  0  0
 12 13  1  0  0  0  0
 13 14  1  0  0  0  0
 14 15  1  0  0  0  0
 15 16  1  0  0  0  0
 11 16  1  0  0  0  0
 12 17  1  0  0  0  0
 17 18  2  0  0  0  0
  9 18  1  0  0  0  0
  5 19  1  0  0  0  0
 19 20  1  0  0  0  0
 20 21  2  0  0  0  0
 22 20  1  0  0  0  0
 22 23  1  1  0  0  0
 22 24  1  0  0  0  0
 24 25  1  0  0  0  0
 25 26  1  0  0  0  0
 26 27  2  0  0  0  0
 27 28  1  0  0  0  0
 28 29  2  0  0  0  0
 29 30  1  0  0  0  0
 30 31  2  0  0  0  0
 26 31  1  0  0  0  0
  5 32  1  0  0  0  0
 32 33  2  0  0  0  0
  2 33  1  0  0  0  0
 33 34  1  0  0  0  0
 34 35  2  0  0  0  0
 35 36  1  0  0  0  0
 36 37  2  0  0  0  0
 32 37  1  0  0  0  0
M  END
> <ID>
CPD_4565

$$$$
CPD_4570
  Mrv1822 09091914012D          

 31 35  0  0  0  0            999 V2000
   -1.6716   -5.7266    0.0000 C   0  0  0  0  0  0  0  0  0  0  0  0
   -1.4009   -4.9015    0.0000 N   0  0  0  0  0  0  0  0  0  0  0  0
   -1.8858   -4.2340    0.0000 C   0  0  0  0  0  0  0  0  0  0  0  0
   -2.7299   -4.5316    0.0000 O   0  0  0  0  0  0  0  0  0  0  0  0
   -1.4009   -3.5666    0.0000 C   0  0  0  0  0  0  0  0  0  0  0  0
   -2.1451   -3.2532    0.0000 C   0  0  0  0  0  0  0  0  0  0  0  0
   -1.9336   -2.3953    0.0000 C   0  0  0  0  0  0  0  0  0  0  0  0
   -0.9125   -2.0130    0.0000 O   0  0  0  0  0  0  0  0  0  0  0  0
   -2.8299   -1.9166    0.0000 C   0  0  0  0  0  0  0  0  0  0  0  0
   -2.8299   -1.0916    0.0000 C   0  0  0  0  0  0  0  0  0  0  0  0
   -3.5443   -0.6791    0.0000 C   0  0  0  0  0  0  0  0  0  0  0  0
   -4.2588   -1.0916    0.0000 C   0  0  0  0  0  0  0  0  0  0  0  0
   -4.9733   -0.6791    0.0000 O   0  0  0  0  0  0  0  0  0  0  0  0
   -4.9733    0.1459    0.0000 C   0  0  0  0  0  0  0  0  0  0  0  0
   -4.2588    0.5584    0.0000 C   0  0  0  0  0  0  0  0  0  0  0  0
   -3.5443    0.1459    0.0000 O   0  0  0  0  0  0  0  0  0  0  0  0
   -4.2588   -1.9166    0.0000 C   0  0  0  0  0  0  0  0  0  0  0  0
   -3.5443   -2.3291    0.0000 C   0  0  0  0  0  0  0  0  0  0  0  0
   -1.1328   -2.8236    0.0000 O   0  0  0  0  0  0  0  0  0  0  0  0
   -1.4728   -2.0476    0.0000 C   0  0  0  0  0  0  0  0  0  0  0  0
   -2.3657   -2.0708    0.0000 O   0  0  0  0  0  0  0  0  0  0  0  0
   -1.2147   -1.3918    0.0000 C   0  0  0  0  0  0  0  0  0  0  0  0
   -1.5440   -0.6353    0.0000 C   0  0  0  0  0  0  0  0  0  0  0  0
   -0.7875   -0.3061    0.0000 C   0  0  0  0  0  0  0  0  0  0  0  0
   -0.4583   -1.0626    0.0000 C   0  0  0  0  0  0  0  0  0  0  0  0
   -0.6163   -3.8215    0.0000 C   0  0  0  0  0  0  0  0  0  0  0  0
   -0.6163   -4.6465    0.0000 C   0  0  0  0  0  0  0  0  0  0  0  0
    0.0982   -5.0590    0.0000 C   0  0  0  0  0  0  0  0  0  0  0  0
    0.8126   -4.6465    0.0000 C   0  0  0  0  0  0  0  0  0  0  0  0
    0.8126   -3.8215    0.0000 C   0  0  0  0  0  0  0  0  0  0  0  0
    0.0982   -3.4090    0.0000 C   0  0  0  0  0  0  0  0  0  0  0  0
  1  2  1  0  0  0  0
  2  3  1  0  0  0  0
  3  4  2  0  0  0  0
  3  5  1  0  0  0  0
  5  6  1  0  0  0  0
  6  7  1  0  0  0  0
  7  8  2  0  0  0  0
  7  9  1  0  0  0  0
  9 10  2  0  0  0  0
 10 11  1  0  0  0  0
 11 12  2  0  0  0  0
 12 13  1  0  0  0  0
 13 14  1  0  0  0  0
 14 15  1  0  0  0  0
 15 16  1  0  0  0  0
 11 16  1  0  0  0  0
 12 17  1  0  0  0  0
 17 18  2  0  0  0  0
  9 18  1  0  0  0  0
  5 19  1  0  0  0  0
 19 20  1  0  0  0  0
 20 21  2  0  0  0  0
 20 22  1  0  0  0  0
 22 23  1  0  0  0  0
 23 24  1  0  0  0  0
 24 25  1  0  0  0  0
 22 25  1  0  0  0  0
  5 26  1  0  0  0  0
 26 27  2  0  0  0  0
  2 27  1  0  0  0  0
 27 28  1  0  0  0  0
 28 29  2  0  0  0  0
 29 30  1  0  0  0  0
 30 31  2  0  0  0  0
 26 31  1  0  0  0  0
M  END
> <ID>
CPD_4570

$$$$
CPD_4575
  Mrv1822 09091914012D          

 39 43  0  0  0  0            999 V2000
   -0.1014    2.1518    0.0000 C   0  0  0  0  0  0  0  0  0  0  0  0
    0.1536    1.3672    0.0000 C   0  0  0  0  0  0  0  0  0  0  0  0
   -0.3984    0.7541    0.0000 C   0  0  0  0  0  0  0  0  0  0  0  0
   -0.1435   -0.0305    0.0000 N   0  0  0  0  0  0  0  0  0  0  0  0
   -0.6284   -0.6979    0.0000 C   0  0  0  0  0  0  0  0  0  0  0  0
   -1.4534   -0.6979    0.0000 N   0  0  0  0  0  0  0  0  0  0  0  0
   -1.8659   -1.4124    0.0000 C   0  0  0  0  0  0  0  0  0  0  0  0
   -2.6909   -1.4124    0.0000 C   0  0  0  0  0  0  0  0  0  0  0  0
   -3.1034   -2.1269    0.0000 C   0  0  0  0  0  0  0  0  0  0  0  0
   -2.6909   -2.8414    0.0000 O   0  0  0  0  0  0  0  0  0  0  0  0
   -3.1034   -3.5558    0.0000 C   0  0  0  0  0  0  0  0  0  0  0  0
   -3.9284   -3.5558    0.0000 C   0  0  0  0  0  0  0  0  0  0  0  0
   -4.3409   -2.8414    0.0000 C   0  0  0  0  0  0  0  0  0  0  0  0
   -5.1659   -2.8414    0.0000 C   0  0  0  0  0  0  0  0  0  0  0  0
   -5.5784   -2.1269    0.0000 O   0  0  0  0  0  0  0  0  0  0  0  0
   -5.5784   -3.5558    0.0000 C   0  0  0  0  0  0  0  0  0  0  0  0
   -6.4034   -3.5558    0.0000 O   0  0  0  0  0  0  0  0  0  0  0  0
   -6.8159   -4.2703    0.0000 C   0  0  0  0  0  0  0  0  0  0  0  0
   -7.6409   -4.2703    0.0000 C   0  0  0  0  0  0  0  0  0  0  0  0
   -8.0534   -4.9848    0.0000 C   0  0  0  0  0  0  0  0  0  0  0  0
   -8.8784   -4.9848    0.0000 C   0  0  0  0  0  0  0  0  0  0  0  0
   -9.2909   -4.2703    0.0000 C   0  0  0  0  0  0  0  0  0  0  0  0
   -8.8784   -3.5558    0.0000 C   0  0  0  0  0  0  0  0  0  0  0  0
   -8.0534   -3.5558    0.0000 C   0  0  0  0  0  0  0  0  0  0  0  0
   -5.1659   -4.2703    0.0000 C   0  0  0  0  0  0  0  0  0  0  0  0
   -4.3409   -4.2703    0.0000 N   0  0  0  0  0  0  0  0  0  0  0  0
   -3.9284   -4.9848    0.0000 C   0  0  0  0  0  0  0  0  0  0  0  0
   -3.9284   -2.1269    0.0000 C   0  0  0  0  0  0  0  0  0  0  0  0
   -4.3409   -1.4124    0.0000 C   0  0  0  0  0  0  0  0  0  0  0  0
   -3.9284   -0.6979    0.0000 C   0  0  0  0  0  0  0  0  0  0  0  0
   -4.3409    0.0165    0.0000 C   0  0  0  0  0  0  0  0  0  0  0  0
   -3.1034   -0.6979    0.0000 C   0  0  0  0  0  0  0  0  0  0  0  0
   -0.1435   -1.3654    0.0000 N   0  0  0  0  0  0  0  0  0  0  0  0
    0.6411   -1.1104    0.0000 C   0  0  0  0  0  0  0  0  0  0  0  0
    0.6411   -0.2854    0.0000 C   0  0  0  0  0  0  0  0  0  0  0  0
    1.3556    0.1271    0.0000 C   0  0  0  0  0  0  0  0  0  0  0  0
    2.0701   -0.2854    0.0000 C   0  0  0  0  0  0  0  0  0  0  0  0
    2.0701   -1.1104    0.0000 C   0  0  0  0  0  0  0  0  0  0  0  0
    1.3556   -1.5229    0.0000 C   0  0  0  0  0  0  0  0  0  0  0  0
  1  2  1  0  0  0  0
  2  3  1  0  0  0  0
  3  4  1  0  0  0  0
  4  5  1  0  0  0  0
  5  6  1  0  0  0  0
  6  7  1  0  0  0  0
  7  8  1  0  0  0  0
  8  9  2  0  0  0  0
  9 10  1  0  0  0  0
 10 11  1  0  0  0  0
 11 12  1  0  0  0  0
 12 13  2  0  0  0  0
 13 14  1  0  0  0  0
 14 15  2  0  0  0  0
 14 16  1  0  0  0  0
 16 17  1  0  0  0  0
 17 18  1  0  0  0  0
 18 19  1  0  0  0  0
 19 20  2  0  0  0  0
 20 21  1  0  0  0  0
 21 22  2  0  0  0  0
 22 23  1  0  0  0  0
 23 24  2  0  0  0  0
 19 24  1  0  0  0  0
 16 25  2  0  0  0  0
 25 26  1  0  0  0  0
 12 26  1  0  0  0  0
 26 27  1  0  0  0  0
  9 28  1  0  0  0  0
 28 29  2  0  0  0  0
 29 30  1  0  0  0  0
 30 31  1  0  0  0  0
 30 32  2  0  0  0  0
  8 32  1  0  0  0  0
  5 33  2  0  0  0  0
 33 34  1  0  0  0  0
 34 35  2  0  0  0  0
  4 35  1  0  0  0  0
 35 36  1  0  0  0  0
 36 37  2  0  0  0  0
 37 38  1  0  0  0  0
 38 39  2  0  0  0  0
 34 39  1  0  0  0  0
M  END
> <ID>
CPD_4575

$$$$
CPD_4580
  Mrv1822 09091914012D          

 37 41  0  0  0  0            999 V2000
   -0.9784    0.9817    0.0000 C   0  0  0  0  0  0  0  0  0  0  0  0
   -0.1714    1.1533    0.0000 O   0  0  0  0  0  0  0  0  0  0  0  0
    0.3806    0.5402    0.0000 C   0  0  0  0  0  0  0  0  0  0  0  0
    1.1876    0.7117    0.0000 C   0  0  0  0  0  0  0  0  0  0  0  0
    1.7396    0.0986    0.0000 C   0  0  0  0  0  0  0  0  0  0  0  0
    1.4847   -0.6860    0.0000 C   0  0  0  0  0  0  0  0  0  0  0  0
    0.6777   -0.8575    0.0000 C   0  0  0  0  0  0  0  0  0  0  0  0
    0.1257   -0.2444    0.0000 C   0  0  0  0  0  0  0  0  0  0  0  0
    2.0367   -1.2991    0.0000 C   0  0  0  0  0  0  0  0  0  0  0  0
    2.5887   -0.6860    0.0000 C   0  0  0  0  0  0  0  0  0  0  0  0
    3.3957   -0.8575    0.0000 C   0  0  0  0  0  0  0  0  0  0  0  0
    4.0088   -0.3055    0.0000 C   0  0  0  0  0  0  0  0  0  0  0  0
    4.7233   -0.7180    0.0000 C   0  0  0  0  0  0  0  0  0  0  0  0
    4.5518   -1.5250    0.0000 C   0  0  0  0  0  0  0  0  0  0  0  0
    3.7313   -1.6112    0.0000 S   0  0  0  0  0  0  0  0  0  0  0  0
    2.7041   -1.7840    0.0000 N   0  0  0  0  0  0  0  0  0  0  0  0
    2.4492   -2.5687    0.0000 C   0  0  0  0  0  0  0  0  0  0  0  0
    2.9341   -3.2361    0.0000 N   0  0  0  0  0  0  0  0  0  0  0  0
    2.5986   -3.9898    0.0000 C   0  0  0  0  0  0  0  0  0  0  0  0
    3.0835   -4.6572    0.0000 C   0  0  0  0  0  0  0  0  0  0  0  0
    3.9040   -4.5710    0.0000 N   0  0  0  0  0  0  0  0  0  0  0  0
    4.2395   -3.8173    0.0000 C   0  0  0  0  0  0  0  0  0  0  0  0
    3.7546   -3.1499    0.0000 O   0  0  0  0  0  0  0  0  0  0  0  0
    5.0600   -3.7311    0.0000 C   0  0  0  0  0  0  0  0  0  0  0  0
    5.4725   -3.0166    0.0000 C   0  0  0  0  0  0  0  0  0  0  0  0
    6.2795   -3.1881    0.0000 C   0  0  0  0  0  0  0  0  0  0  0  0
    6.3657   -4.0086    0.0000 C   0  0  0  0  0  0  0  0  0  0  0  0
    5.6120   -4.3442    0.0000 S   0  0  0  0  0  0  0  0  0  0  0  0
    2.7479   -5.4109    0.0000 C   0  0  0  0  0  0  0  0  0  0  0  0
    1.9275   -5.4971    0.0000 C   0  0  0  0  0  0  0  0  0  0  0  0
    1.5919   -6.2508    0.0000 C   0  0  0  0  0  0  0  0  0  0  0  0
    1.4425   -4.8297    0.0000 C   0  0  0  0  0  0  0  0  0  0  0  0
    0.6221   -4.9159    0.0000 C   0  0  0  0  0  0  0  0  0  0  0  0
    1.7781   -4.0760    0.0000 C   0  0  0  0  0  0  0  0  0  0  0  0
    1.6242   -2.5687    0.0000 N   0  0  0  0  0  0  0  0  0  0  0  0
    1.3693   -1.7840    0.0000 C   0  0  0  0  0  0  0  0  0  0  0  0
    0.5846   -1.5291    0.0000 O   0  0  0  0  0  0  0  0  0  0  0  0
  1  2  1  0  0  0  0
  2  3  1  0  0  0  0
  3  4  2  0  0  0  0
  4  5  1  0  0  0  0
  5  6  2  0  0  0  0
  6  7  1  0  0  0  0
  7  8  2  0  0  0  0
  3  8  1  0  0  0  0
  6  9  1  0  0  0  0
  9 10  1  0  0  0  0
 10 11  1  0  0  0  0
 11 12  2  0  0  0  0
 12 13  1  0  0  0  0
 13 14  2  0  0  0  0
 14 15  1  0  0  0  0
 11 15  1  0  0  0  0
  9 16  1  0  0  0  0
 16 17  1  0  0  0  0
 17 18  1  0  0  0  0
 18 19  1  0  0  0  0
 19 20  2  0  0  0  0
 20 21  1  0  0  0  0
 21 22  1  0  0  0  0
 22 23  2  0  0  0  0
 22 24  1  0  0  0  0
 24 25  2  0  0  0  0
 25 26  1  0  0  0  0
 26 27  2  0  0  0  0
 27 28  1  0  0  0  0
 24 28  1  0  0  0  0
 20 29  1  0  0  0  0
 29 30  2  0  0  0  0
 30 31  1  0  0  0  0
 30 32  1  0  0  0  0
 32 33  1  0  0  0  0
 32 34  2  0  0  0  0
 19 34  1  0  0  0  0
 17 35  2  0  0  0  0
 35 36  1  0  0  0  0
  9 36  1  0  0  0  0
 36 37  2  0  0  0  0
M  END
> <ID>
CPD_4580

$$$$
CPD_4585
  Mrv1822 09091914012D          

 31 34  0  0  0  0            999 V2000
    5.1080   -0.4741    0.0000 C   0  0  0  0  0  0  0  0  0  0  0  0
    4.3935   -0.0616    0.0000 C   0  0  0  0  0  0  0  0  0  0  0  0
    3.6791   -0.4741    0.0000 C   0  0  0  0  0  0  0  0  0  0  0  0
    2.9646   -0.0616    0.0000 C   0  0  0  0  0  0  0  0  0  0  0  0
    2.9646    0.7634    0.0000 C   0  0  0  0  0  0  0  0  0  0  0  0
    2.2501    1.1759    0.0000 C   0  0  0  0  0  0  0  0  0  0  0  0
    1.5356    0.7634    0.0000 O   0  0  0  0  0  0  0  0  0  0  0  0
    0.8212    1.1759    0.0000 C   0  0  0  0  0  0  0  0  0  0  0  0
    0.1067    0.7634    0.0000 C   0  0  0  0  0  0  0  0  0  0  0  0
   -0.6078    1.1759    0.0000 C   0  0  0  0  0  0  0  0  0  0  0  0
   -0.6078    2.0009    0.0000 N   0  0  0  0  0  0  0  0  0  0  0  0
    0.1067    2.4134    0.0000 C   0  0  0  0  0  0  0  0  0  0  0  0
    0.8212    2.0009    0.0000 C   0  0  0  0  0  0  0  0  0  0  0  0
   -1.3222    2.4134    0.0000 C   0  0  0  0  0  0  0  0  0  0  0  0
   -2.0367    2.0009    0.0000 C   0  0  0  0  0  0  0  0  0  0  0  0
   -2.0367    1.1759    0.0000 N   0  0  0  0  0  0  0  0  0  0  0  0
   -2.7512    0.7634    0.0000 C   0  0  0  0  0  0  0  0  0  0  0  0
   -3.4656    1.1759    0.0000 O   0  0  0  0  0  0  0  0  0  0  0  0
   -2.7512   -0.0616    0.0000 C   0  0  0  0  0  0  0  0  0  0  0  0
   -2.0837   -0.5465    0.0000 C   0  0  0  0  0  0  0  0  0  0  0  0
   -2.3387   -1.3312    0.0000 C   0  0  0  0  0  0  0  0  0  0  0  0
   -3.1637   -1.3312    0.0000 C   0  0  0  0  0  0  0  0  0  0  0  0
   -3.4186   -0.5465    0.0000 S   0  0  0  0  0  0  0  0  0  0  0  0
   -2.7512    2.4134    0.0000 C   0  0  0  0  0  0  0  0  0  0  0  0
   -2.7512    3.2384    0.0000 C   0  0  0  0  0  0  0  0  0  0  0  0
   -3.4656    3.6509    0.0000 C   0  0  0  0  0  0  0  0  0  0  0  0
   -2.0367    3.6509    0.0000 C   0  0  0  0  0  0  0  0  0  0  0  0
   -2.0367    4.4759    0.0000 C   0  0  0  0  0  0  0  0  0  0  0  0
   -1.3222    3.2384    0.0000 C   0  0  0  0  0  0  0  0  0  0  0  0
    3.6791    1.1759    0.0000 C   0  0  0  0  0  0  0  0  0  0  0  0
    4.3935    0.7634    0.0000 C   0  0  0  0  0  0  0  0  0  0  0  0
  1  2  1  0  0  0  0
  2  3  2  0  0  0  0
  3  4  1  0  0  0  0
  4  5  2  0  0  0  0
  5  6  1  0  0  0  0
  6  7  1  0  0  0  0
  7  8  1  0  0  0  0
  8  9  1  0  0  0  0
  9 10  1  0  0  0  0
 10 11  1  0  0  0  0
 11 12  1  0  0  0  0
 12 13  1  0  0  0  0
  8 13  1  0  0  0  0
 11 14  1  0  0  0  0
 14 15  2  0  0  0  0
 15 16  1  0  0  0  0
 16 17  1  0  0  0  0
 17 18  2  0  0  0  0
 17 19  1  0  0  0  0
 19 20  2  0  0  0  0
 20 21  1  0  0  0  0
 21 22  2  0  0  0  0
 22 23  1  0  0  0  0
 19 23  1  0  0  0  0
 15 24  1  0  0  0  0
 24 25  2  0  0  0  0
 25 26  1  0  0  0  0
 25 27  1  0  0  0  0
 27 28  1  0  0  0  0
 27 29  2  0  0  0  0
 14 29  1  0  0  0  0
  5 30  1  0  0  0  0
 30 31  2  0  0  0  0
  2 31  1  0  0  0  0
M  END
> <ID>
CPD_4585

$$$$
CPD_4590
  Mrv1822 09091914012D          

 22 23  0  0  0  0            999 V2000
    1.4289    0.8250    0.0000 C   0  0  0  0  0  0  0  0  0  0  0  0
    1.4289    0.0000    0.0000 C   0  0  0  0  0  0  0  0  0  0  0  0
    2.1434   -0.4125    0.0000 N   0  0  0  0  0  0  0  0  0  0  0  0
    2.1434   -1.2375    0.0000 C   0  0  0  0  0  0  0  0  0  0  0  0
    2.8579   -1.6500    0.0000 C   0  0  0  0  0  0  0  0  0  0  0  0
    2.8579   -2.4750    0.0000 C   0  0  0  0  0  0  0  0  0  0  0  0
    2.1434   -2.8875    0.0000 C   0  0  0  0  0  0  0  0  0  0  0  0
    2.1434   -3.7125    0.0000 Cl  0  0  0  0  0  0  0  0  0  0  0  0
    1.4289   -2.4750    0.0000 C   0  0  0  0  0  0  0  0  0  0  0  0
    1.4289   -1.6500    0.0000 C   0  0  0  0  0  0  0  0  0  0  0  0
    2.8579    0.0000    0.0000 C   0  0  0  0  0  0  0  0  0  0  0  0
    2.8579    0.8250    0.0000 C   0  0  0  0  0  0  0  0  0  0  0  0
    3.5724    1.2375    0.0000 C   0  0  0  0  0  0  0  0  0  0  0  0
    4.2868    0.8250    0.0000 C   0  0  0  0  0  0  0  0  0  0  0  0
    4.2868    0.0000    0.0000 C   0  0  0  0  0  0  0  0  0  0  0  0
    3.5724   -0.4125    0.0000 C   0  0  0  0  0  0  0  0  0  0  0  0
    5.0013    1.2375    0.0000 C   0  0  0  0  0  0  0  0  0  0  0  0
    5.7158    0.8250    0.0000 N   0  0  0  0  0  0  0  0  0  0  0  0
    5.0013    2.0625    0.0000 C   0  0  0  0  0  0  0  0  0  0  0  0
    4.2868    2.4750    0.0000 O   0  0  0  0  0  0  0  0  0  0  0  0
    5.7158    2.4750    0.0000 O   0  0  0  0  0  0  0  0  0  0  0  0
    5.7158    3.3000    0.0000 C   0  0  0  0  0  0  0  0  0  0  0  0
  1  2  1  0  0  0  0
  2  3  1  0  0  0  0
  3  4  1  0  0  0  0
  4  5  2  0  0  0  0
  5  6  1  0  0  0  0
  6  7  2  0  0  0  0
  7  8  1  0  0  0  0
  7  9  1  0  0  0  0
  9 10  2  0  0  0  0
  4 10  1  0  0  0  0
  3 11  1  0  0  0  0
 11 12  2  0  0  0  0
 12 13  1  0  0  0  0
 13 14  2  0  0  0  0
 14 15  1  0  0  0  0
 15 16  2  0  0  0  0
 11 16  1  0  0  0  0
 14 17  1  0  0  0  0
 17 18  1  0  0  0  0
 17 19  1  0  0  0  0
 19 20  2  0  0  0  0
 19 21  1  0  0  0  0
 21 22  1  0  0  0  0
M  END
> <ID>
CPD_4590

$$$$
CPD_4595
  Mrv1822 09091914012D          

 25 26  0  0  0  0            999 V2000
   -5.0013   -2.0625    0.0000 C   0  0  0  0  0  0  0  0  0  0  0  0
   -5.0013   -1.2375    0.0000 O   0  0  0  0  0  0  0  0  0  0  0  0
   -4.2868   -0.8250    0.0000 C   0  0  0  0  0  0  0  0  0  0  0  0
   -3.5724   -1.2375    0.0000 O   0  0  0  0  0  0  0  0  0  0  0  0
   -4.2868   -0.0000    0.0000 C   0  0  0  0  0  0  0  0  0  0  0  0
   -5.0013    0.4125    0.0000 N   0  0  0  0  0  0  0  0  0  0  0  0
   -3.5724    0.4125    0.0000 C   0  0  0  0  0  0  0  0  0  0  0  0
   -3.5724    1.2375    0.0000 C   0  0  0  0  0  0  0  0  0  0  0  0
   -2.8579    1.6500    0.0000 C   0  0  0  0  0  0  0  0  0  0  0  0
   -2.1434    1.2375    0.0000 C   0  0  0  0  0  0  0  0  0  0  0  0
   -2.1434    0.4125    0.0000 C   0  0  0  0  0  0  0  0  0  0  0  0
   -2.8579   -0.0000    0.0000 C   0  0  0  0  0  0  0  0  0  0  0  0
   -1.4289    1.6500    0.0000 N   0  0  0  0  0  0  0  0  0  0  0  0
   -1.4289    2.4750    0.0000 C   0  0  0  0  0  0  0  0  0  0  0  0
   -0.7145    2.8875    0.0000 C   0  0  0  0  0  0  0  0  0  0  0  0
    0.0000    2.4750    0.0000 C   0  0  0  0  0  0  0  0  0  0  0  0
    0.0000    1.6500    0.0000 C   0  0  0  0  0  0  0  0  0  0  0  0
   -0.7145    1.2375    0.0000 C   0  0  0  0  0  0  0  0  0  0  0  0
    0.7145    2.8875    0.0000 N   0  0  0  0  0  0  0  0  0  0  0  0
    0.7145    3.7125    0.0000 C   0  0  0  0  0  0  0  0  0  0  0  0
    1.4289    2.4750    0.0000 C   0  0  0  0  0  0  0  0  0  0  0  0
    2.1434    2.8875    0.0000 C   0  0  0  0  0  0  0  0  0  0  0  0
    2.8579    2.4750    0.0000 N   0  0  0  0  0  0  0  0  0  0  0  0
    3.5724    2.8875    0.0000 C   0  0  0  0  0  0  0  0  0  0  0  0
    2.8579    1.6500    0.0000 C   0  0  0  0  0  0  0  0  0  0  0  0
  1  2  1  0  0  0  0
  2  3  1  0  0  0  0
  3  4  2  0  0  0  0
  3  5  1  0  0  0  0
  5  6  1  0  0  0  0
  5  7  1  0  0  0  0
  7  8  2  0  0  0  0
  8  9  1  0  0  0  0
  9 10  2  0  0  0  0
 10 11  1  0  0  0  0
 11 12  2  0  0  0  0
  7 12  1  0  0  0  0
 10 13  1  0  0  0  0
 13 14  1  0  0  0  0
 14 15  1  0  0  0  0
 15 16  1  0  0  0  0
 16 17  1  0  0  0  0
 17 18  1  0  0  0  0
 13 18  1  0  0  0  0
 16 19  1  0  0  0  0
 19 20  1  0  0  0  0
 19 21  1  0  0  0  0
 21 22  1  0  0  0  0
 22 23  1  0  0  0  0
 23 24  1  0  0  0  0
 23 25  1  0  0  0  0
M  END
> <ID>
CPD_4595

$$$$
CPD_4600
  Mrv1822 09091914012D          

 26 28  0  0  0  0            999 V2000
    4.3935    3.2384    0.0000 C   0  0  0  0  0  0  0  0  0  0  0  0
    4.3935    2.4134    0.0000 O   0  0  0  0  0  0  0  0  0  0  0  0
    3.6791    2.0009    0.0000 C   0  0  0  0  0  0  0  0  0  0  0  0
    2.9646    2.4134    0.0000 O   0  0  0  0  0  0  0  0  0  0  0  0
    3.6791    1.1759    0.0000 C   0  0  0  0  0  0  0  0  0  0  0  0
    4.3935    0.7634    0.0000 N   0  0  0  0  0  0  0  0  0  0  0  0
    2.9646    0.7634    0.0000 C   0  0  0  0  0  0  0  0  0  0  0  0
    2.9646   -0.0616    0.0000 C   0  0  0  0  0  0  0  0  0  0  0  0
    2.2501   -0.4741    0.0000 C   0  0  0  0  0  0  0  0  0  0  0  0
    1.5356   -0.0616    0.0000 C   0  0  0  0  0  0  0  0  0  0  0  0
    0.8212   -0.4741    0.0000 N   0  0  0  0  0  0  0  0  0  0  0  0
    0.1067   -0.0616    0.0000 C   0  0  0  0  0  0  0  0  0  0  0  0
   -0.6078   -0.4741    0.0000 C   0  0  0  0  0  0  0  0  0  0  0  0
   -1.3222   -0.0616    0.0000 N   0  0  0  0  0  0  0  0  0  0  0  0
   -2.0367   -0.4741    0.0000 C   0  0  0  0  0  0  0  0  0  0  0  0
   -2.7512   -0.0616    0.0000 C   0  0  0  0  0  0  0  0  0  0  0  0
   -2.7512    0.7634    0.0000 O   0  0  0  0  0  0  0  0  0  0  0  0
   -2.0367    1.1759    0.0000 C   0  0  0  0  0  0  0  0  0  0  0  0
   -1.3222    0.7634    0.0000 C   0  0  0  0  0  0  0  0  0  0  0  0
   -0.6078   -1.2991    0.0000 C   0  0  0  0  0  0  0  0  0  0  0  0
    0.0597   -1.7840    0.0000 C   0  0  0  0  0  0  0  0  0  0  0  0
   -0.1953   -2.5687    0.0000 C   0  0  0  0  0  0  0  0  0  0  0  0
   -1.0203   -2.5687    0.0000 C   0  0  0  0  0  0  0  0  0  0  0  0
   -1.2752   -1.7840    0.0000 O   0  0  0  0  0  0  0  0  0  0  0  0
    1.5356    0.7634    0.0000 C   0  0  0  0  0  0  0  0  0  0  0  0
    2.2501    1.1759    0.0000 C   0  0  0  0  0  0  0  0  0  0  0  0
  1  2  1  0  0  0  0
  2  3  1  0  0  0  0
  3  4  2  0  0  0  0
  3  5  1  0  0  0  0
  5  6  1  0  0  0  0
  5  7  1  0  0  0  0
  7  8  2  0  0  0  0
  8  9  1  0  0  0  0
  9 10  2  0  0  0  0
 10 11  1  0  0  0  0
 11 12  1  0  0  0  0
 12 13  1  0  0  0  0
 13 14  1  0  0  0  0
 14 15  1  0  0  0  0
 15 16  1  0  0  0  0
 16 17  1  0  0  0  0
 17 18  1  0  0  0  0
 18 19  1  0  0  0  0
 14 19  1  0  0  0  0
 13 20  1  0  0  0  0
 20 21  2  0  0  0  0
 21 22  1  0  0  0  0
 22 23  2  0  0  0  0
 23 24  1  0  0  0  0
 20 24  1  0  0  0  0
 10 25  1  0  0  0  0
 25 26  2  0  0  0  0
  7 26  1  0  0  0  0
M  END
> <ID>
CPD_4600

$$$$
CPD_4605
  Mrv1822 09091914012D          

 36 40  0  0  0  0            999 V2000
   -0.3984    0.7541    0.0000 C   0  0  0  0  0  0  0  0  0  0  0  0
   -0.1435   -0.0305    0.0000 N   0  0  0  0  0  0  0  0  0  0  0  0
   -0.6284   -0.6979    0.0000 C   0  0  0  0  0  0  0  0  0  0  0  0
   -1.2959   -0.2130    0.0000 O   0  0  0  0  0  0  0  0  0  0  0  0
   -0.1435   -1.3654    0.0000 C   0  0  0  0  0  0  0  0  0  0  0  0
    0.1921   -2.1191    0.0000 C   0  0  0  0  0  0  0  0  0  0  0  0
   -0.2929   -2.7865    0.0000 C   0  0  0  0  0  0  0  0  0  0  0  0
   -1.1134   -2.7003    0.0000 O   0  0  0  0  0  0  0  0  0  0  0  0
    0.0427   -3.5402    0.0000 C   0  0  0  0  0  0  0  0  0  0  0  0
    0.8632   -3.6264    0.0000 C   0  0  0  0  0  0  0  0  0  0  0  0
    1.1987   -4.3801    0.0000 C   0  0  0  0  0  0  0  0  0  0  0  0
    0.7138   -5.0475    0.0000 N   0  0  0  0  0  0  0  0  0  0  0  0
   -0.1067   -4.9613    0.0000 C   0  0  0  0  0  0  0  0  0  0  0  0
   -0.4422   -4.2076    0.0000 C   0  0  0  0  0  0  0  0  0  0  0  0
   -0.8580   -1.7779    0.0000 N   0  0  0  0  0  0  0  0  0  0  0  0
   -1.5724   -1.3654    0.0000 C   0  0  0  0  0  0  0  0  0  0  0  0
   -2.2869   -1.7779    0.0000 C   0  0  0  0  0  0  0  0  0  0  0  0
   -3.0014   -1.3654    0.0000 C   0  0  0  0  0  0  0  0  0  0  0  0
   -3.7159   -1.7779    0.0000 O   0  0  0  0  0  0  0  0  0  0  0  0
   -3.7159   -2.6029    0.0000 C   0  0  0  0  0  0  0  0  0  0  0  0
   -4.4303   -3.0154    0.0000 C   0  0  0  0  0  0  0  0  0  0  0  0
   -4.4303   -3.8404    0.0000 C   0  0  0  0  0  0  0  0  0  0  0  0
   -5.1448   -4.2529    0.0000 C   0  0  0  0  0  0  0  0  0  0  0  0
   -5.8593   -3.8404    0.0000 C   0  0  0  0  0  0  0  0  0  0  0  0
   -5.8593   -3.0154    0.0000 C   0  0  0  0  0  0  0  0  0  0  0  0
   -5.1448   -2.6029    0.0000 C   0  0  0  0  0  0  0  0  0  0  0  0
   -3.0014   -0.5404    0.0000 C   0  0  0  0  0  0  0  0  0  0  0  0
   -3.7159   -0.1279    0.0000 Cl  0  0  0  0  0  0  0  0  0  0  0  0
   -2.2869   -0.1279    0.0000 C   0  0  0  0  0  0  0  0  0  0  0  0
   -1.5724   -0.5404    0.0000 C   0  0  0  0  0  0  0  0  0  0  0  0
    0.6411   -1.1104    0.0000 C   0  0  0  0  0  0  0  0  0  0  0  0
    0.6411   -0.2854    0.0000 C   0  0  0  0  0  0  0  0  0  0  0  0
    1.3556    0.1271    0.0000 C   0  0  0  0  0  0  0  0  0  0  0  0
    2.0701   -0.2854    0.0000 C   0  0  0  0  0  0  0  0  0  0  0  0
    2.0701   -1.1104    0.0000 C   0  0  0  0  0  0  0  0  0  0  0  0
    1.3556   -1.5229    0.0000 C   0  0  0  0  0  0  0  0  0  0  0  0
  1  2  1  0  0  0  0
  2  3  1  0  0  0  0
  3  4  2  0  0  0  0
  3  5  1  0  0  0  0
  5  6  1  0  0  0  0
  6  7  1  0  0  0  0
  7  8  2  0  0  0  0
  7  9  1  0  0  0  0
  9 10  2  0  0  0  0
 10 11  1  0  0  0  0
 11 12  2  0  0  0  0
 12 13  1  0  0  0  0
 13 14  2  0  0  0  0
  9 14  1  0  0  0  0
  5 15  1  0  0  0  0
 15 16  1  0  0  0  0
 16 17  2  0  0  0  0
 17 18  1  0  0  0  0
 18 19  1  0  0  0  0
 19 20  1  0  0  0  0
 20 21  1  0  0  0  0
 21 22  2  0  0  0  0
 22 23  1  0  0  0  0
 23 24  2  0  0  0  0
 24 25  1  0  0  0  0
 25 26  2  0  0  0  0
 21 26  1  0  0  0  0
 18 27  2  0  0  0  0
 27 28  1  0  0  0  0
 27 29  1  0  0  0  0
 29 30  2  0  0  0  0
 16 30  1  0  0  0  0
  5 31  1  0  0  0  0
 31 32  2  0  0  0  0
  2 32  1  0  0  0  0
 32 33  1  0  0  0  0
 33 34  2  0  0  0  0
 34 35  1  0  0  0  0
 35 36  2  0  0  0  0
 31 36  1  0  0  0  0
M  END
> <ID>
CPD_4605

$$$$
CPD_4610
  Mrv1822 09091914012D          

 35 39  0  0  0  0            999 V2000
   -3.4691    1.2407    0.0000 O   0  0  0  0  0  0  0  0  0  0  0  0
   -2.9842    0.5733    0.0000 C   0  0  0  0  0  0  0  0  0  0  0  0
   -3.3197   -0.1804    0.0000 O   0  0  0  0  0  0  0  0  0  0  0  0
   -2.1637    0.6595    0.0000 C   0  0  0  0  0  0  0  0  0  0  0  0
   -1.6117    0.0464    0.0000 C   0  0  0  0  0  0  0  0  0  0  0  0
   -1.7832   -0.7605    0.0000 C   0  0  0  0  0  0  0  0  0  0  0  0
   -2.5678   -1.0155    0.0000 C   0  0  0  0  0  0  0  0  0  0  0  0
   -2.7393   -1.8224    0.0000 C   0  0  0  0  0  0  0  0  0  0  0  0
   -3.5240   -2.0774    0.0000 C   0  0  0  0  0  0  0  0  0  0  0  0
   -3.6955   -2.8844    0.0000 F   0  0  0  0  0  0  0  0  0  0  0  0
   -4.1370   -1.5253    0.0000 C   0  0  0  0  0  0  0  0  0  0  0  0
   -3.9655   -0.7184    0.0000 C   0  0  0  0  0  0  0  0  0  0  0  0
   -3.1809   -0.4634    0.0000 C   0  0  0  0  0  0  0  0  0  0  0  0
   -0.8580    0.3820    0.0000 N   0  0  0  0  0  0  0  0  0  0  0  0
   -0.9442    1.2025    0.0000 N   0  0  0  0  0  0  0  0  0  0  0  0
   -1.7512    1.3740    0.0000 C   0  0  0  0  0  0  0  0  0  0  0  0
   -0.1435   -0.0305    0.0000 C   0  0  0  0  0  0  0  0  0  0  0  0
    0.1921    0.7232    0.0000 C   0  0  0  0  0  0  0  0  0  0  0  0
    1.0125    0.8094    0.0000 C   0  0  0  0  0  0  0  0  0  0  0  0
    1.6800    0.3245    0.0000 O   0  0  0  0  0  0  0  0  0  0  0  0
    1.3481    1.5631    0.0000 C   0  0  0  0  0  0  0  0  0  0  0  0
    2.1551    1.7346    0.0000 C   0  0  0  0  0  0  0  0  0  0  0  0
    2.2413    2.5551    0.0000 C   0  0  0  0  0  0  0  0  0  0  0  0
    1.4876    2.8906    0.0000 C   0  0  0  0  0  0  0  0  0  0  0  0
    0.9356    2.2776    0.0000 O   0  0  0  0  0  0  0  0  0  0  0  0
   -0.6284   -0.6979    0.0000 C   0  0  0  0  0  0  0  0  0  0  0  0
   -1.4534   -0.6979    0.0000 O   0  0  0  0  0  0  0  0  0  0  0  0
   -0.1435   -1.3654    0.0000 N   0  0  0  0  0  0  0  0  0  0  0  0
    0.6411   -1.1104    0.0000 C   0  0  0  0  0  0  0  0  0  0  0  0
    0.6411   -0.2854    0.0000 C   0  0  0  0  0  0  0  0  0  0  0  0
    1.3556    0.1271    0.0000 C   0  0  0  0  0  0  0  0  0  0  0  0
    2.0701   -0.2854    0.0000 C   0  0  0  0  0  0  0  0  0  0  0  0
    2.7845    0.1271    0.0000 Cl  0  0  0  0  0  0  0  0  0  0  0  0
    2.0701   -1.1104    0.0000 C   0  0  0  0  0  0  0  0  0  0  0  0
    1.3556   -1.5229    0.0000 C   0  0  0  0  0  0  0  0  0  0  0  0
  1  2  1  0  0  0  0
  2  3  2  0  0  0  0
  2  4  1  0  0  0  0
  4  5  2  0  0  0  0
  5  6  1  0  0  0  0
  6  7  1  0  0  0  0
  7  8  2  0  0  0  0
  8  9  1  0  0  0  0
  9 10  1  0  0  0  0
  9 11  2  0  0  0  0
 11 12  1  0  0  0  0
 12 13  2  0  0  0  0
  7 13  1  0  0  0  0
  5 14  1  0  0  0  0
 14 15  1  0  0  0  0
 15 16  2  0  0  0  0
  4 16  1  0  0  0  0
 14 17  1  0  0  0  0
 17 18  1  0  0  0  0
 18 19  1  0  0  0  0
 19 20  2  0  0  0  0
 19 21  1  0  0  0  0
 21 22  2  0  0  0  0
 22 23  1  0  0  0  0
 23 24  2  0  0  0  0
 24 25  1  0  0  0  0
 21 25  1  0  0  0  0
 17 26  1  0  0  0  0
 26 27  2  0  0  0  0
 26 28  1  0  0  0  0
 28 29  1  0  0  0  0
 29 30  2  0  0  0  0
 17 30  1  0  0  0  0
 30 31  1  0  0  0  0
 31 32  2  0  0  0  0
 32 33  1  0  0  0  0
 32 34  1  0  0  0  0
 34 35  2  0  0  0  0
 29 35  1  0  0  0  0
M  END
> <ID>
CPD_4610

$$$$
CPD_4615
  Mrv1822 09091914012D          

 37 40  0  0  0  0            999 V2000
    0.1957    3.5496    0.0000 C   0  0  0  0  0  0  0  0  0  0  0  0
    0.4507    2.7649    0.0000 C   0  0  0  0  0  0  0  0  0  0  0  0
   -0.1014    2.1518    0.0000 O   0  0  0  0  0  0  0  0  0  0  0  0
    0.1536    1.3672    0.0000 C   0  0  0  0  0  0  0  0  0  0  0  0
    0.9606    1.1957    0.0000 O   0  0  0  0  0  0  0  0  0  0  0  0
   -0.3984    0.7541    0.0000 C   0  0  0  0  0  0  0  0  0  0  0  0
   -0.1435   -0.0305    0.0000 N   0  0  0  0  0  0  0  0  0  0  0  0
   -0.6284   -0.6979    0.0000 C   0  0  0  0  0  0  0  0  0  0  0  0
   -1.4534   -0.6979    0.0000 O   0  0  0  0  0  0  0  0  0  0  0  0
   -0.1435   -1.3654    0.0000 C   0  0  0  0  0  0  0  0  0  0  0  0
    0.1921   -2.1191    0.0000 C   0  0  0  0  0  0  0  0  0  0  0  0
    1.0125   -2.2053    0.0000 C   0  0  0  0  0  0  0  0  0  0  0  0
    1.6800   -1.7204    0.0000 O   0  0  0  0  0  0  0  0  0  0  0  0
    1.3481   -2.9590    0.0000 C   0  0  0  0  0  0  0  0  0  0  0  0
    2.1686   -3.0452    0.0000 C   0  0  0  0  0  0  0  0  0  0  0  0
    2.5041   -3.7989    0.0000 C   0  0  0  0  0  0  0  0  0  0  0  0
    2.0192   -4.4663    0.0000 N   0  0  0  0  0  0  0  0  0  0  0  0
    1.1987   -4.3801    0.0000 C   0  0  0  0  0  0  0  0  0  0  0  0
    0.8632   -3.6264    0.0000 C   0  0  0  0  0  0  0  0  0  0  0  0
   -0.8580   -1.7779    0.0000 N   0  0  0  0  0  0  0  0  0  0  0  0
   -1.5724   -1.3654    0.0000 C   0  0  0  0  0  0  0  0  0  0  0  0
   -0.8580   -2.6029    0.0000 C   0  0  0  0  0  0  0  0  0  0  0  0
   -1.5724   -3.0154    0.0000 C   0  0  0  0  0  0  0  0  0  0  0  0
   -1.5724   -3.8404    0.0000 C   0  0  0  0  0  0  0  0  0  0  0  0
   -2.2869   -4.2529    0.0000 C   0  0  0  0  0  0  0  0  0  0  0  0
   -3.0014   -3.8404    0.0000 N   0  0  0  0  0  0  0  0  0  0  0  0
   -3.0014   -3.0154    0.0000 C   0  0  0  0  0  0  0  0  0  0  0  0
   -2.2869   -2.6029    0.0000 C   0  0  0  0  0  0  0  0  0  0  0  0
   -3.7159   -4.2529    0.0000 C   0  0  0  0  0  0  0  0  0  0  0  0
   -3.7159   -5.0779    0.0000 C   0  0  0  0  0  0  0  0  0  0  0  0
   -4.4303   -3.8404    0.0000 C   0  0  0  0  0  0  0  0  0  0  0  0
    0.6411   -1.1104    0.0000 C   0  0  0  0  0  0  0  0  0  0  0  0
    0.6411   -0.2854    0.0000 C   0  0  0  0  0  0  0  0  0  0  0  0
    1.3556    0.1271    0.0000 C   0  0  0  0  0  0  0  0  0  0  0  0
    2.0701   -0.2854    0.0000 C   0  0  0  0  0  0  0  0  0  0  0  0
    2.0701   -1.1104    0.0000 C   0  0  0  0  0  0  0  0  0  0  0  0
    1.3556   -1.5229    0.0000 C   0  0  0  0  0  0  0  0  0  0  0  0
  1  2  1  0  0  0  0
  2  3  1  0  0  0  0
  3  4  1  0  0  0  0
  4  5  2  0  0  0  0
  4  6  1  0  0  0  0
  6  7  1  0  0  0  0
  7  8  1  0  0  0  0
  8  9  2  0  0  0  0
  8 10  1  0  0  0  0
 10 11  1  0  0  0  0
 11 12  1  0  0  0  0
 12 13  2  0  0  0  0
 12 14  1  0  0  0  0
 14 15  2  0  0  0  0
 15 16  1  0  0  0  0
 16 17  2  0  0  0  0
 17 18  1  0  0  0  0
 18 19  2  0  0  0  0
 14 19  1  0  0  0  0
 10 20  1  0  0  0  0
 20 21  1  0  0  0  0
 20 22  1  0  0  0  0
 22 23  1  0  0  0  0
 23 24  1  0  0  0  0
 24 25  1  0  0  0  0
 25 26  1  0  0  0  0
 26 27  1  0  0  0  0
 27 28  1  0  0  0  0
 23 28  1  0  0  0  0
 26 29  1  0  0  0  0
 29 30  1  0  0  0  0
 29 31  1  0  0  0  0
 10 32  1  0  0  0  0
 32 33  2  0  0  0  0
  7 33  1  0  0  0  0
 33 34  1  0  0  0  0
 34 35  2  0  0  0  0
 35 36  1  0  0  0  0
 36 37  2  0  0  0  0
 32 37  1  0  0  0  0
M  END
> <ID>
CPD_4615

$$$$
CPD_4620
  Mrv1822 09091914012D          

 17 19  0  0  0  0            999 V2000
    0.5269    1.3725    0.0000 Br  0  0  0  0  0  0  0  0  0  0  0  0
   -0.0862    0.8205    0.0000 C   0  0  0  0  0  0  0  0  0  0  0  0
    0.0000    0.0000    0.0000 C   0  0  0  0  0  0  0  0  0  0  0  0
   -0.7537   -0.3356    0.0000 S   0  0  0  0  0  0  0  0  0  0  0  0
   -1.3057    0.2775    0.0000 C   0  0  0  0  0  0  0  0  0  0  0  0
   -0.8932    0.9920    0.0000 C   0  0  0  0  0  0  0  0  0  0  0  0
    0.7145   -0.4125    0.0000 C   0  0  0  0  0  0  0  0  0  0  0  0
    1.4289    0.0000    0.0000 N   0  0  0  0  0  0  0  0  0  0  0  0
    2.1434   -0.4125    0.0000 C   0  0  0  0  0  0  0  0  0  0  0  0
    2.8579    0.0000    0.0000 C   0  0  0  0  0  0  0  0  0  0  0  0
    3.5724   -0.4125    0.0000 C   0  0  0  0  0  0  0  0  0  0  0  0
    3.5724   -1.2375    0.0000 C   0  0  0  0  0  0  0  0  0  0  0  0
    2.8579   -1.6500    0.0000 C   0  0  0  0  0  0  0  0  0  0  0  0
    2.1434   -1.2375    0.0000 C   0  0  0  0  0  0  0  0  0  0  0  0
    1.4289   -1.6500    0.0000 C   0  0  0  0  0  0  0  0  0  0  0  0
    1.4289   -2.4750    0.0000 O   0  0  0  0  0  0  0  0  0  0  0  0
    0.7145   -1.2375    0.0000 N   0  0  0  0  0  0  0  0  0  0  0  0
  1  2  1  0  0  0  0
  2  3  2  0  0  0  0
  3  4  1  0  0  0  0
  4  5  1  0  0  0  0
  5  6  2  0  0  0  0
  2  6  1  0  0  0  0
  3  7  1  0  0  0  0
  7  8  2  0  0  0  0
  8  9  1  0  0  0  0
  9 10  2  0  0  0  0
 10 11  1  0  0  0  0
 11 12  2  0  0  0  0
 12 13  1  0  0  0  0
 13 14  2  0  0  0  0
  9 14  1  0  0  0  0
 14 15  1  0  0  0  0
 15 16  2  0  0  0  0
 15 17  1  0  0  0  0
  7 17  1  0  0  0  0
M  END
> <ID>
CPD_4620

$$$$
CPD_4625
  Mrv1822 09091914012D          

 31 34  0  0  0  0            999 V2000
   -0.7145   -1.2375    0.0000 O   0  0  0  0  0  0  0  0  0  0  0  0
    0.0000   -1.6500    0.0000 C   0  0  0  0  0  0  0  0  0  0  0  0
    0.0000   -2.4750    0.0000 O   0  0  0  0  0  0  0  0  0  0  0  0
   -0.7145   -2.8875    0.0000 C   0  0  0  0  0  0  0  0  0  0  0  0
   -0.7145   -3.7125    0.0000 C   0  0  0  0  0  0  0  0  0  0  0  0
   -1.4289   -4.1250    0.0000 C   0  0  0  0  0  0  0  0  0  0  0  0
   -2.1434   -3.7125    0.0000 C   0  0  0  0  0  0  0  0  0  0  0  0
   -2.1434   -2.8875    0.0000 C   0  0  0  0  0  0  0  0  0  0  0  0
   -1.4289   -2.4750    0.0000 C   0  0  0  0  0  0  0  0  0  0  0  0
   -2.8579   -4.1250    0.0000 C   0  0  0  0  0  0  0  0  0  0  0  0
   -3.5724   -4.5375    0.0000 N   0  0  0  0  0  0  0  0  0  0  0  0
    0.7145   -1.2375    0.0000 C   0  0  0  0  0  0  0  0  0  0  0  0
    0.7145   -0.4125    0.0000 C   0  0  0  0  0  0  0  0  0  0  0  0
    1.4289    0.0000    0.0000 N   0  0  0  0  0  0  0  0  0  0  0  0
    2.1434   -0.4125    0.0000 C   0  0  0  0  0  0  0  0  0  0  0  0
    2.8579    0.0000    0.0000 C   0  0  0  0  0  0  0  0  0  0  0  0
    3.5724   -0.4125    0.0000 C   0  0  0  0  0  0  0  0  0  0  0  0
    3.5724   -1.2375    0.0000 C   0  0  0  0  0  0  0  0  0  0  0  0
    2.8579   -1.6500    0.0000 C   0  0  0  0  0  0  0  0  0  0  0  0
    2.1434   -1.2375    0.0000 C   0  0  0  0  0  0  0  0  0  0  0  0
    1.4289   -1.6500    0.0000 O   0  0  0  0  0  0  0  0  0  0  0  0
    1.4289    0.8250    0.0000 S   0  0  0  0  0  0  0  0  0  0  0  0
    2.2539    0.8250    0.0000 O   0  0  0  0  0  0  0  0  0  0  0  0
    0.6039    0.8250    0.0000 O   0  0  0  0  0  0  0  0  0  0  0  0
    1.4289    1.6500    0.0000 C   0  0  0  0  0  0  0  0  0  0  0  0
    2.1434    2.0625    0.0000 C   0  0  0  0  0  0  0  0  0  0  0  0
    2.1434    2.8875    0.0000 C   0  0  0  0  0  0  0  0  0  0  0  0
    2.8579    3.3000    0.0000 C   0  0  0  0  0  0  0  0  0  0  0  0
    3.5724    2.8875    0.0000 C   0  0  0  0  0  0  0  0  0  0  0  0
    3.5724    2.0625    0.0000 C   0  0  0  0  0  0  0  0  0  0  0  0
    2.8579    1.6500    0.0000 C   0  0  0  0  0  0  0  0  0  0  0  0
  1  2  2  0  0  0  0
  2  3  1  0  0  0  0
  3  4  1  0  0  0  0
  4  5  1  0  0  0  0
  5  6  1  0  0  0  0
  6  7  1  0  0  0  0
  7  8  1  0  0  0  0
  8  9  1  0  0  0  0
  4  9  1  0  0  0  0
  7 10  1  0  0  0  0
 10 11  3  0  0  0  0
  2 12  1  0  0  0  0
 12 13  1  0  0  0  0
 13 14  1  0  0  0  0
 14 15  1  0  0  0  0
 15 16  2  0  0  0  0
 16 17  1  0  0  0  0
 17 18  2  0  0  0  0
 18 19  1  0  0  0  0
 19 20  2  0  0  0  0
 15 20  1  0  0  0  0
 20 21  1  0  0  0  0
 12 21  1  0  0  0  0
 14 22  1  0  0  0  0
 22 23  2  0  0  0  0
 22 24  2  0  0  0  0
 22 25  1  0  0  0  0
 25 26  1  0  0  0  0
 26 27  2  0  0  0  0
 27 28  1  0  0  0  0
 28 29  2  0  0  0  0
 29 30  1  0  0  0  0
 30 31  2  0  0  0  0
 26 31  1  0  0  0  0
M  END
> <ID>
CPD_4625

$$$$
CPD_4630
  Mrv1822 09091914012D          

 20 21  0  0  0  0            999 V2000
    1.4289   -1.6500    0.0000 F   0  0  0  0  0  0  0  0  0  0  0  0
    1.4289   -2.4750    0.0000 C   0  0  0  0  0  0  0  0  0  0  0  0
    2.1434   -2.8875    0.0000 C   0  0  0  0  0  0  0  0  0  0  0  0
    2.1434   -3.7125    0.0000 C   0  0  0  0  0  0  0  0  0  0  0  0
    1.4289   -4.1250    0.0000 C   0  0  0  0  0  0  0  0  0  0  0  0
    0.7145   -3.7125    0.0000 C   0  0  0  0  0  0  0  0  0  0  0  0
    0.0000   -4.1250    0.0000 Br  0  0  0  0  0  0  0  0  0  0  0  0
    0.7145   -2.8875    0.0000 C   0  0  0  0  0  0  0  0  0  0  0  0
    0.0000   -2.4750    0.0000 F   0  0  0  0  0  0  0  0  0  0  0  0
    2.8579   -4.1250    0.0000 C   0  0  0  0  0  0  0  0  0  0  0  0
    2.8579   -4.9500    0.0000 O   0  0  0  0  0  0  0  0  0  0  0  0
    3.5724   -3.7125    0.0000 O   0  0  0  0  0  0  0  0  0  0  0  0
    4.2868   -4.1250    0.0000 C   0  0  0  0  0  0  0  0  0  0  0  0
    5.0013   -3.7125    0.0000 C   0  0  0  0  0  0  0  0  0  0  0  0
    5.7158   -4.1250    0.0000 C   0  0  0  0  0  0  0  0  0  0  0  0
    5.7158   -4.9500    0.0000 C   0  0  0  0  0  0  0  0  0  0  0  0
    5.0013   -5.3625    0.0000 C   0  0  0  0  0  0  0  0  0  0  0  0
    4.2868   -4.9500    0.0000 C   0  0  0  0  0  0  0  0  0  0  0  0
    6.4302   -5.3625    0.0000 C   0  0  0  0  0  0  0  0  0  0  0  0
    7.1447   -5.7750    0.0000 N   0  0  0  0  0  0  0  0  0  0  0  0
  1  2  1  0  0  0  0
  2  3  2  0  0  0  0
  3  4  1  0  0  0  0
  4  5  2  0  0  0  0
  5  6  1  0  0  0  0
  6  7  1  0  0  0  0
  6  8  2  0  0  0  0
  2  8  1  0  0  0  0
  8  9  1  0  0  0  0
  4 10  1  0  0  0  0
 10 11  2  0  0  0  0
 10 12  1  0  0  0  0
 12 13  1  0  0  0  0
 13 14  1  0  0  0  0
 14 15  1  0  0  0  0
 15 16  1  0  0  0  0
 16 17  1  0  0  0  0
 17 18  1  0  0  0  0
 13 18  1  0  0  0  0
 16 19  1  0  0  0  0
 19 20  3  0  0  0  0
M  END
> <ID>
CPD_4630

$$$$
CPD_4635
  Mrv1822 09091914012D          

 26 28  0  0  0  0            999 V2000
   -2.2673    1.8818    0.0000 C   0  0  0  0  0  0  0  0  0  0  0  0
   -1.4604    1.7103    0.0000 C   0  0  0  0  0  0  0  0  0  0  0  0
   -0.9083    2.3234    0.0000 C   0  0  0  0  0  0  0  0  0  0  0  0
   -1.2054    0.9256    0.0000 C   0  0  0  0  0  0  0  0  0  0  0  0
   -1.7575    0.3126    0.0000 O   0  0  0  0  0  0  0  0  0  0  0  0
   -0.3984    0.7541    0.0000 N   0  0  0  0  0  0  0  0  0  0  0  0
   -0.1435   -0.0305    0.0000 C   0  0  0  0  0  0  0  0  0  0  0  0
   -0.6284   -0.6979    0.0000 N   0  0  0  0  0  0  0  0  0  0  0  0
   -0.1435   -1.3654    0.0000 N   0  0  0  0  0  0  0  0  0  0  0  0
    0.6411   -1.1104    0.0000 C   0  0  0  0  0  0  0  0  0  0  0  0
    0.6411   -0.2854    0.0000 N   0  0  0  0  0  0  0  0  0  0  0  0
    1.3556    0.1271    0.0000 C   0  0  0  0  0  0  0  0  0  0  0  0
    2.0701   -0.2854    0.0000 C   0  0  0  0  0  0  0  0  0  0  0  0
    2.0701   -1.1104    0.0000 C   0  0  0  0  0  0  0  0  0  0  0  0
    1.3556   -1.5229    0.0000 C   0  0  0  0  0  0  0  0  0  0  0  0
    1.3556   -2.3479    0.0000 C   0  0  0  0  0  0  0  0  0  0  0  0
    0.6411   -2.7604    0.0000 O   0  0  0  0  0  0  0  0  0  0  0  0
    2.0701   -2.7604    0.0000 O   0  0  0  0  0  0  0  0  0  0  0  0
    2.0701   -3.5854    0.0000 C   0  0  0  0  0  0  0  0  0  0  0  0
    2.7845   -3.9979    0.0000 C   0  0  0  0  0  0  0  0  0  0  0  0
    2.7845   -4.8229    0.0000 C   0  0  0  0  0  0  0  0  0  0  0  0
    2.0701   -5.2354    0.0000 C   0  0  0  0  0  0  0  0  0  0  0  0
    1.3556   -4.8229    0.0000 C   0  0  0  0  0  0  0  0  0  0  0  0
    1.3556   -3.9979    0.0000 C   0  0  0  0  0  0  0  0  0  0  0  0
    2.0701   -6.0604    0.0000 C   0  0  0  0  0  0  0  0  0  0  0  0
    2.0701   -6.8854    0.0000 N   0  0  0  0  0  0  0  0  0  0  0  0
  1  2  1  0  0  0  0
  2  3  1  0  0  0  0
  2  4  1  0  0  0  0
  4  5  2  0  0  0  0
  4  6  1  0  0  0  0
  6  7  1  0  0  0  0
  7  8  2  0  0  0  0
  8  9  1  0  0  0  0
  9 10  2  0  0  0  0
 10 11  1  0  0  0  0
  7 11  1  0  0  0  0
 11 12  1  0  0  0  0
 12 13  2  0  0  0  0
 13 14  1  0  0  0  0
 14 15  2  0  0  0  0
 10 15  1  0  0  0  0
 15 16  1  0  0  0  0
 16 17  2  0  0  0  0
 16 18  1  0  0  0  0
 18 19  1  0  0  0  0
 19 20  1  0  0  0  0
 20 21  1  0  0  0  0
 21 22  1  0  0  0  0
 22 23  1  0  0  0  0
 23 24  1  0  0  0  0
 19 24  1  0  0  0  0
 22 25  1  0  0  0  0
 25 26  3  0  0  0  0
M  END
> <ID>
CPD_4635

$$$$
CPD_4640
  Mrv1822 09091914012D          

 28 29  0  0  0  0            999 V2000
    0.0862   -1.1613    0.0000 C   0  0  0  0  0  0  0  0  0  0  0  0
    0.6165   -1.7933    0.0000 O   0  0  0  0  0  0  0  0  0  0  0  0
    1.4289   -1.6500    0.0000 C   0  0  0  0  0  0  0  0  0  0  0  0
    1.7111   -0.8748    0.0000 O   0  0  0  0  0  0  0  0  0  0  0  0
    1.9592   -2.2820    0.0000 C   0  0  0  0  0  0  0  0  0  0  0  0
    2.6737   -2.6945    0.0000 C   0  0  0  0  0  0  0  0  0  0  0  0
    2.6737   -3.5195    0.0000 C   0  0  0  0  0  0  0  0  0  0  0  0
    1.9592   -3.9320    0.0000 N   0  0  0  0  0  0  0  0  0  0  0  0
    1.2448   -3.5195    0.0000 C   0  0  0  0  0  0  0  0  0  0  0  0
    1.2448   -2.6945    0.0000 C   0  0  0  0  0  0  0  0  0  0  0  0
    1.9592   -4.7570    0.0000 C   0  0  0  0  0  0  0  0  0  0  0  0
    2.6737   -5.1695    0.0000 O   0  0  0  0  0  0  0  0  0  0  0  0
    1.2448   -5.1695    0.0000 O   0  0  0  0  0  0  0  0  0  0  0  0
    1.2448   -5.9945    0.0000 C   0  0  0  0  0  0  0  0  0  0  0  0
    1.2448   -6.8195    0.0000 C   0  0  0  0  0  0  0  0  0  0  0  0
    2.0698   -5.9945    0.0000 C   0  0  0  0  0  0  0  0  0  0  0  0
    0.4198   -5.9945    0.0000 C   0  0  0  0  0  0  0  0  0  0  0  0
    2.4895   -1.6500    0.0000 C   0  0  0  0  0  0  0  0  0  0  0  0
    3.3020   -1.7933    0.0000 O   0  0  0  0  0  0  0  0  0  0  0  0
    2.2074   -0.8748    0.0000 O   0  0  0  0  0  0  0  0  0  0  0  0
    2.7377   -0.2428    0.0000 C   0  0  0  0  0  0  0  0  0  0  0  0
    2.4555    0.5325    0.0000 C   0  0  0  0  0  0  0  0  0  0  0  0
    2.9858    1.1645    0.0000 C   0  0  0  0  0  0  0  0  0  0  0  0
    3.7983    1.0212    0.0000 C   0  0  0  0  0  0  0  0  0  0  0  0
    4.0804    0.2460    0.0000 C   0  0  0  0  0  0  0  0  0  0  0  0
    3.5501   -0.3860    0.0000 C   0  0  0  0  0  0  0  0  0  0  0  0
    4.3286    1.6532    0.0000 C   0  0  0  0  0  0  0  0  0  0  0  0
    4.8589    2.2852    0.0000 N   0  0  0  0  0  0  0  0  0  0  0  0
  1  2  1  0  0  0  0
  2  3  1  0  0  0  0
  3  4  2  0  0  0  0
  3  5  1  0  0  0  0
  5  6  1  0  0  0  0
  6  7  1  0  0  0  0
  7  8  1  0  0  0  0
  8  9  1  0  0  0  0
  9 10  1  0  0  0  0
  5 10  1  0  0  0  0
  8 11  1  0  0  0  0
 11 12  2  0  0  0  0
 11 13  1  0  0  0  0
 13 14  1  0  0  0  0
 14 15  1  0  0  0  0
 14 16  1  0  0  0  0
 14 17  1  0  0  0  0
  5 18  1  0  0  0  0
 18 19  2  0  0  0  0
 18 20  1  0  0  0  0
 20 21  1  0  0  0  0
 21 22  1  0  0  0  0
 22 23  1  0  0  0  0
 23 24  1  0  0  0  0
 24 25  1  0  0  0  0
 25 26  1  0  0  0  0
 21 26  1  0  0  0  0
 24 27  1  0  0  0  0
 27 28  3  0  0  0  0
M  END
> <ID>
CPD_4640

$$$$
CPD_4645
  Mrv1822 09091914012D          

 27 30  0  0  0  0            999 V2000
   -1.8002    5.9633    0.0000 N   0  0  0  0  0  0  0  0  0  0  0  0
   -2.1357    6.7170    0.0000 C   0  0  0  0  0  0  0  0  0  0  0  0
   -2.9562    6.8032    0.0000 C   0  0  0  0  0  0  0  0  0  0  0  0
   -3.2918    7.5569    0.0000 C   0  0  0  0  0  0  0  0  0  0  0  0
   -2.8069    8.2244    0.0000 C   0  0  0  0  0  0  0  0  0  0  0  0
   -1.9864    8.1381    0.0000 C   0  0  0  0  0  0  0  0  0  0  0  0
   -1.6508    7.3844    0.0000 C   0  0  0  0  0  0  0  0  0  0  0  0
   -3.4411    6.1358    0.0000 C   0  0  0  0  0  0  0  0  0  0  0  0
   -3.1056    5.3821    0.0000 O   0  0  0  0  0  0  0  0  0  0  0  0
   -4.2616    6.2220    0.0000 C   0  0  0  0  0  0  0  0  0  0  0  0
   -4.7465    5.5546    0.0000 C   0  0  0  0  0  0  0  0  0  0  0  0
   -5.5670    5.6408    0.0000 C   0  0  0  0  0  0  0  0  0  0  0  0
   -5.9026    6.3945    0.0000 C   0  0  0  0  0  0  0  0  0  0  0  0
   -5.4177    7.0619    0.0000 C   0  0  0  0  0  0  0  0  0  0  0  0
   -4.5972    6.9757    0.0000 C   0  0  0  0  0  0  0  0  0  0  0  0
   -4.4110    4.8009    0.0000 C   0  0  0  0  0  0  0  0  0  0  0  0
   -3.5905    4.7147    0.0000 O   0  0  0  0  0  0  0  0  0  0  0  0
   -4.8959    4.1335    0.0000 O   0  0  0  0  0  0  0  0  0  0  0  0
   -4.5604    3.3798    0.0000 C   0  0  0  0  0  0  0  0  0  0  0  0
   -5.0453    2.7124    0.0000 C   0  0  0  0  0  0  0  0  0  0  0  0
   -4.7903    1.9277    0.0000 N   0  0  0  0  0  0  0  0  0  0  0  0
   -5.4578    1.4428    0.0000 C   0  0  0  0  0  0  0  0  0  0  0  0
   -6.1252    1.9277    0.0000 C   0  0  0  0  0  0  0  0  0  0  0  0
   -5.8703    2.7124    0.0000 S   0  0  0  0  0  0  0  0  0  0  0  0
   -5.4578    0.6178    0.0000 C   0  0  0  0  0  0  0  0  0  0  0  0
   -5.0453   -0.0966    0.0000 C   0  0  0  0  0  0  0  0  0  0  0  0
   -5.8703   -0.0966    0.0000 C   0  0  0  0  0  0  0  0  0  0  0  0
  1  2  1  0  0  0  0
  2  3  2  0  0  0  0
  3  4  1  0  0  0  0
  4  5  2  0  0  0  0
  5  6  1  0  0  0  0
  6  7  2  0  0  0  0
  2  7  1  0  0  0  0
  3  8  1  0  0  0  0
  8  9  2  0  0  0  0
  8 10  1  0  0  0  0
 10 11  2  0  0  0  0
 11 12  1  0  0  0  0
 12 13  2  0  0  0  0
 13 14  1  0  0  0  0
 14 15  2  0  0  0  0
 10 15  1  0  0  0  0
 11 16  1  0  0  0  0
 16 17  2  0  0  0  0
 16 18  1  0  0  0  0
 18 19  1  0  0  0  0
 19 20  1  0  0  0  0
 20 21  2  0  0  0  0
 21 22  1  0  0  0  0
 22 23  2  0  0  0  0
 23 24  1  0  0  0  0
 20 24  1  0  0  0  0
 22 25  1  0  0  0  0
 25 26  1  0  0  0  0
 26 27  1  0  0  0  0
 25 27  1  0  0  0  0
M  END
> <ID>
CPD_4645

$$$$
CPD_4650
  Mrv1822 09091914012D          

 30 32  0  0  1  0            999 V2000
   -3.3722    5.4582    0.0000 C   0  0  0  0  0  0  0  0  0  0  0  0
   -3.0366    4.7045    0.0000 C   0  0  0  0  0  0  0  0  0  0  0  0
   -2.2296    4.5330    0.0000 C   0  0  0  0  0  0  0  0  0  0  0  0
   -1.6166    5.0850    0.0000 C   0  0  0  0  0  0  0  0  0  0  0  0
   -2.1434    3.7125    0.0000 N   0  0  0  0  0  0  0  0  0  0  0  0
   -2.8971    3.3769    0.0000 C   0  0  0  0  0  0  0  0  0  0  0  0
   -3.4491    3.9900    0.0000 N   0  0  0  0  0  0  0  0  0  0  0  0
   -3.0686    2.5700    0.0000 C   0  0  0  0  0  0  0  0  0  0  0  0
   -2.4555    2.0179    0.0000 C   0  0  0  0  0  0  0  0  0  0  0  0
   -2.6270    1.2110    0.0000 C   0  0  0  0  0  0  0  0  0  0  0  0
   -3.4117    0.9560    0.0000 C   0  0  0  0  0  0  0  0  0  0  0  0
   -3.5832    0.1491    0.0000 Cl  0  0  0  0  0  0  0  0  0  0  0  0
   -4.0248    1.5081    0.0000 C   0  0  0  0  0  0  0  0  0  0  0  0
   -3.8532    2.3150    0.0000 C   0  0  0  0  0  0  0  0  0  0  0  0
   -1.4289    3.3000    0.0000 C   0  0  0  0  0  0  0  0  0  0  0  0
   -0.7145    3.7125    0.0000 C   0  0  0  0  0  0  0  0  0  0  0  0
    0.0000    3.3000    0.0000 C   0  0  0  0  0  0  0  0  0  0  0  0
    0.0000    2.4750    0.0000 C   0  0  0  0  0  0  0  0  0  0  0  0
    0.7145    2.0625    0.0000 N   0  0  0  0  0  0  0  0  0  0  0  0
    1.4289    2.4750    0.0000 C   0  0  0  0  0  0  0  0  0  0  0  0
    1.4289    3.3000    0.0000 O   0  0  0  0  0  0  0  0  0  0  0  0
    2.1434    2.0625    0.0000 C   0  0  2  0  0  0  0  0  0  0  0  0
    2.1434    1.2375    0.0000 N   0  0  0  0  0  0  0  0  0  0  0  0
    2.8579    2.4750    0.0000 C   0  0  0  0  0  0  0  0  0  0  0  0
    3.5724    2.0625    0.0000 C   0  0  0  0  0  0  0  0  0  0  0  0
    4.2868    2.4750    0.0000 C   0  0  0  0  0  0  0  0  0  0  0  0
    5.0013    2.0625    0.0000 C   0  0  0  0  0  0  0  0  0  0  0  0
    5.7158    2.4750    0.0000 N   0  0  0  0  0  0  0  0  0  0  0  0
   -0.7145    2.0625    0.0000 C   0  0  0  0  0  0  0  0  0  0  0  0
   -1.4289    2.4750    0.0000 C   0  0  0  0  0  0  0  0  0  0  0  0
  1  2  1  0  0  0  0
  2  3  2  0  0  0  0
  3  4  1  0  0  0  0
  3  5  1  0  0  0  0
  5  6  1  0  0  0  0
  6  7  2  0  0  0  0
  2  7  1  0  0  0  0
  6  8  1  0  0  0  0
  8  9  2  0  0  0  0
  9 10  1  0  0  0  0
 10 11  2  0  0  0  0
 11 12  1  0  0  0  0
 11 13  1  0  0  0  0
 13 14  2  0  0  0  0
  8 14  1  0  0  0  0
  5 15  1  0  0  0  0
 15 16  2  0  0  0  0
 16 17  1  0  0  0  0
 17 18  2  0  0  0  0
 18 19  1  0  0  0  0
 19 20  1  0  0  0  0
 20 21  2  0  0  0  0
 22 20  1  0  0  0  0
 22 23  1  1  0  0  0
 22 24  1  0  0  0  0
 24 25  1  0  0  0  0
 25 26  1  0  0  0  0
 26 27  1  0  0  0  0
 27 28  1  0  0  0  0
 18 29  1  0  0  0  0
 29 30  2  0  0  0  0
 15 30  1  0  0  0  0
M  END
> <ID>
CPD_4650

$$$$
CPD_4655
  Mrv1822 09091914012D          

 32 35  0  0  0  0            999 V2000
   -2.7512    3.2384    0.0000 C   0  0  0  0  0  0  0  0  0  0  0  0
   -2.7512    2.4134    0.0000 C   0  0  0  0  0  0  0  0  0  0  0  0
   -2.0367    2.0009    0.0000 O   0  0  0  0  0  0  0  0  0  0  0  0
   -2.0367    1.1759    0.0000 C   0  0  0  0  0  0  0  0  0  0  0  0
   -1.3222    0.7634    0.0000 C   0  0  0  0  0  0  0  0  0  0  0  0
   -0.6078    1.1759    0.0000 C   0  0  0  0  0  0  0  0  0  0  0  0
   -1.3222   -0.0616    0.0000 C   0  0  0  0  0  0  0  0  0  0  0  0
   -2.0367   -0.4741    0.0000 C   0  0  0  0  0  0  0  0  0  0  0  0
   -2.7512   -0.0616    0.0000 C   0  0  0  0  0  0  0  0  0  0  0  0
   -2.7512    0.7634    0.0000 C   0  0  0  0  0  0  0  0  0  0  0  0
   -2.0367   -1.2991    0.0000 C   0  0  0  0  0  0  0  0  0  0  0  0
   -1.3222   -1.7116    0.0000 O   0  0  0  0  0  0  0  0  0  0  0  0
   -2.7512   -1.7116    0.0000 N   0  0  0  0  0  0  0  0  0  0  0  0
   -2.7512   -2.5366    0.0000 C   0  0  0  0  0  0  0  0  0  0  0  0
   -2.0837   -3.0215    0.0000 N   0  0  0  0  0  0  0  0  0  0  0  0
   -2.3387   -3.8062    0.0000 N   0  0  0  0  0  0  0  0  0  0  0  0
   -3.1637   -3.8062    0.0000 C   0  0  0  0  0  0  0  0  0  0  0  0
   -3.4186   -3.0215    0.0000 S   0  0  0  0  0  0  0  0  0  0  0  0
   -3.6486   -4.4736    0.0000 C   0  0  0  0  0  0  0  0  0  0  0  0
   -3.3130   -5.2273    0.0000 C   0  0  0  0  0  0  0  0  0  0  0  0
   -3.7980   -5.8947    0.0000 C   0  0  0  0  0  0  0  0  0  0  0  0
   -4.6184   -5.8085    0.0000 N   0  0  0  0  0  0  0  0  0  0  0  0
   -4.9540   -5.0548    0.0000 C   0  0  0  0  0  0  0  0  0  0  0  0
   -4.4691   -4.3874    0.0000 C   0  0  0  0  0  0  0  0  0  0  0  0
   -5.1034   -6.4759    0.0000 C   0  0  0  0  0  0  0  0  0  0  0  0
   -5.9239   -6.3897    0.0000 O   0  0  0  0  0  0  0  0  0  0  0  0
   -4.7678   -7.2296    0.0000 C   0  0  0  0  0  0  0  0  0  0  0  0
   -3.9473   -7.3158    0.0000 C   0  0  0  0  0  0  0  0  0  0  0  0
   -3.6118   -8.0695    0.0000 C   0  0  0  0  0  0  0  0  0  0  0  0
   -4.0967   -8.7369    0.0000 C   0  0  0  0  0  0  0  0  0  0  0  0
   -4.9172   -8.6507    0.0000 C   0  0  0  0  0  0  0  0  0  0  0  0
   -5.2527   -7.8970    0.0000 C   0  0  0  0  0  0  0  0  0  0  0  0
  1  2  1  0  0  0  0
  2  3  1  0  0  0  0
  3  4  1  0  0  0  0
  4  5  2  0  0  0  0
  5  6  1  0  0  0  0
  5  7  1  0  0  0  0
  7  8  2  0  0  0  0
  8  9  1  0  0  0  0
  9 10  2  0  0  0  0
  4 10  1  0  0  0  0
  8 11  1  0  0  0  0
 11 12  2  0  0  0  0
 11 13  1  0  0  0  0
 13 14  1  0  0  0  0
 14 15  2  0  0  0  0
 15 16  1  0  0  0  0
 16 17  2  0  0  0  0
 17 18  1  0  0  0  0
 14 18  1  0  0  0  0
 17 19  1  0  0  0  0
 19 20  1  0  0  0  0
 20 21  1  0  0  0  0
 21 22  1  0  0  0  0
 22 23  1  0  0  0  0
 23 24  1  0  0  0  0
 19 24  1  0  0  0  0
 22 25  1  0  0  0  0
 25 26  2  0  0  0  0
 25 27  1  0  0  0  0
 27 28  2  0  0  0  0
 28 29  1  0  0  0  0
 29 30  2  0  0  0  0
 30 31  1  0  0  0  0
 31 32  2  0  0  0  0
 27 32  1  0  0  0  0
M  END
> <ID>
CPD_4655

$$$$
CPD_4660
  Mrv1822 09091914012D          

 38 42  0  0  0  0            999 V2000
    0.6078    2.8259    0.0000 N   0  0  0  0  0  0  0  0  0  0  0  0
    1.3222    2.4134    0.0000 S   0  0  0  0  0  0  0  0  0  0  0  0
    0.9097    1.6989    0.0000 O   0  0  0  0  0  0  0  0  0  0  0  0
    1.7347    3.1279    0.0000 O   0  0  0  0  0  0  0  0  0  0  0  0
    2.0367    2.0009    0.0000 C   0  0  0  0  0  0  0  0  0  0  0  0
    2.7512    2.4134    0.0000 C   0  0  0  0  0  0  0  0  0  0  0  0
    3.4656    2.0009    0.0000 C   0  0  0  0  0  0  0  0  0  0  0  0
    3.4656    1.1759    0.0000 C   0  0  0  0  0  0  0  0  0  0  0  0
    2.7512    0.7634    0.0000 C   0  0  0  0  0  0  0  0  0  0  0  0
    2.0367    1.1759    0.0000 C   0  0  0  0  0  0  0  0  0  0  0  0
    4.1801    0.7634    0.0000 C   0  0  0  0  0  0  0  0  0  0  0  0
    4.8946    1.1759    0.0000 C   0  0  0  0  0  0  0  0  0  0  0  0
    5.6091    0.7634    0.0000 C   0  0  0  0  0  0  0  0  0  0  0  0
    5.6091   -0.0616    0.0000 C   0  0  0  0  0  0  0  0  0  0  0  0
    4.8946   -0.4741    0.0000 C   0  0  0  0  0  0  0  0  0  0  0  0
    4.1801   -0.0616    0.0000 C   0  0  0  0  0  0  0  0  0  0  0  0
    4.8946   -1.2991    0.0000 C   0  0  0  0  0  0  0  0  0  0  0  0
    5.6091   -1.7116    0.0000 O   0  0  0  0  0  0  0  0  0  0  0  0
    4.1801   -1.7116    0.0000 N   0  0  0  0  0  0  0  0  0  0  0  0
    4.1801   -2.5366    0.0000 C   0  0  0  0  0  0  0  0  0  0  0  0
    4.8476   -3.0215    0.0000 N   0  0  0  0  0  0  0  0  0  0  0  0
    4.5926   -3.8062    0.0000 N   0  0  0  0  0  0  0  0  0  0  0  0
    3.7676   -3.8062    0.0000 C   0  0  0  0  0  0  0  0  0  0  0  0
    3.5127   -3.0215    0.0000 S   0  0  0  0  0  0  0  0  0  0  0  0
    3.2827   -4.4736    0.0000 C   0  0  0  0  0  0  0  0  0  0  0  0
    3.6183   -5.2273    0.0000 C   0  0  0  0  0  0  0  0  0  0  0  0
    3.1333   -5.8947    0.0000 C   0  0  0  0  0  0  0  0  0  0  0  0
    2.3129   -5.8085    0.0000 N   0  0  0  0  0  0  0  0  0  0  0  0
    1.9773   -5.0548    0.0000 C   0  0  0  0  0  0  0  0  0  0  0  0
    2.4622   -4.3874    0.0000 C   0  0  0  0  0  0  0  0  0  0  0  0
    1.8279   -6.4759    0.0000 C   0  0  0  0  0  0  0  0  0  0  0  0
    2.1635   -7.2296    0.0000 O   0  0  0  0  0  0  0  0  0  0  0  0
    1.0074   -6.3897    0.0000 C   0  0  0  0  0  0  0  0  0  0  0  0
    0.5225   -7.0571    0.0000 C   0  0  0  0  0  0  0  0  0  0  0  0
   -0.2980   -6.9709    0.0000 C   0  0  0  0  0  0  0  0  0  0  0  0
   -0.6335   -6.2172    0.0000 C   0  0  0  0  0  0  0  0  0  0  0  0
   -0.1486   -5.5498    0.0000 C   0  0  0  0  0  0  0  0  0  0  0  0
    0.6719   -5.6360    0.0000 C   0  0  0  0  0  0  0  0  0  0  0  0
  1  2  1  0  0  0  0
  2  3  2  0  0  0  0
  2  4  2  0  0  0  0
  2  5  1  0  0  0  0
  5  6  2  0  0  0  0
  6  7  1  0  0  0  0
  7  8  2  0  0  0  0
  8  9  1  0  0  0  0
  9 10  2  0  0  0  0
  5 10  1  0  0  0  0
  8 11  1  0  0  0  0
 11 12  2  0  0  0  0
 12 13  1  0  0  0  0
 13 14  2  0  0  0  0
 14 15  1  0  0  0  0
 15 16  2  0  0  0  0
 11 16  1  0  0  0  0
 15 17  1  0  0  0  0
 17 18  2  0  0  0  0
 17 19  1  0  0  0  0
 19 20  1  0  0  0  0
 20 21  2  0  0  0  0
 21 22  1  0  0  0  0
 22 23  2  0  0  0  0
 23 24  1  0  0  0  0
 20 24  1  0  0  0  0
 23 25  1  0  0  0  0
 25 26  1  0  0  0  0
 26 27  1  0  0  0  0
 27 28  1  0  0  0  0
 28 29  1  0  0  0  0
 29 30  1  0  0  0  0
 25 30  1  0  0  0  0
 28 31  1  0  0  0  0
 31 32  2  0  0  0  0
 31 33  1  0  0  0  0
 33 34  2  0  0  0  0
 34 35  1  0  0  0  0
 35 36  2  0  0  0  0
 36 37  1  0  0  0  0
 37 38  2  0  0  0  0
 33 38  1  0  0  0  0
M  END
> <ID>
CPD_4660

$$$$
CPD_4665
  Mrv1822 09091914012D          

 33 35  0  0  1  0            999 V2000
    3.5724   -2.0625    0.0000 C   0  0  0  0  0  0  0  0  0  0  0  0
    2.8579   -1.6500    0.0000 C   0  0  0  0  0  0  0  0  0  0  0  0
    3.2704   -0.9355    0.0000 C   0  0  0  0  0  0  0  0  0  0  0  0
    2.4454   -2.3645    0.0000 C   0  0  0  0  0  0  0  0  0  0  0  0
    2.1434   -1.2375    0.0000 O   0  0  0  0  0  0  0  0  0  0  0  0
    1.4289   -1.6500    0.0000 C   0  0  0  0  0  0  0  0  0  0  0  0
    0.7145   -1.2375    0.0000 O   0  0  0  0  0  0  0  0  0  0  0  0
    1.4289   -2.4750    0.0000 N   0  0  0  0  0  0  0  0  0  0  0  0
    0.7615   -2.9599    0.0000 C   0  0  1  0  0  0  0  0  0  0  0  0
   -0.0231   -2.7050    0.0000 C   0  0  0  0  0  0  0  0  0  0  0  0
   -0.6362   -3.2570    0.0000 C   0  0  0  0  0  0  0  0  0  0  0  0
   -0.4647   -4.0640    0.0000 C   0  0  0  0  0  0  0  0  0  0  0  0
   -1.0778   -4.6160    0.0000 C   0  0  0  0  0  0  0  0  0  0  0  0
   -1.8624   -4.3611    0.0000 C   0  0  0  0  0  0  0  0  0  0  0  0
   -2.0339   -3.5541    0.0000 C   0  0  0  0  0  0  0  0  0  0  0  0
   -1.4208   -3.0021    0.0000 C   0  0  0  0  0  0  0  0  0  0  0  0
   -1.5924   -2.1951    0.0000 F   0  0  0  0  0  0  0  0  0  0  0  0
    1.0164   -3.7445    0.0000 C   0  0  0  0  0  0  0  0  0  0  0  0
    0.5315   -4.4120    0.0000 O   0  0  0  0  0  0  0  0  0  0  0  0
    0.8671   -5.1657    0.0000 C   0  0  0  0  0  0  0  0  0  0  0  0
    1.6876   -5.2519    0.0000 O   0  0  0  0  0  0  0  0  0  0  0  0
    0.3822   -5.8331    0.0000 C   0  0  0  0  0  0  0  0  0  0  0  0
    0.7177   -6.5868    0.0000 C   0  0  0  0  0  0  0  0  0  0  0  0
    1.5382   -6.6730    0.0000 F   0  0  0  0  0  0  0  0  0  0  0  0
    0.2328   -7.2542    0.0000 C   0  0  0  0  0  0  0  0  0  0  0  0
   -0.5877   -7.1680    0.0000 C   0  0  0  0  0  0  0  0  0  0  0  0
   -1.0726   -7.8354    0.0000 F   0  0  0  0  0  0  0  0  0  0  0  0
   -0.9232   -6.4143    0.0000 C   0  0  0  0  0  0  0  0  0  0  0  0
   -1.7437   -6.3281    0.0000 N   0  0  0  0  0  0  0  0  0  0  0  0
   -0.4383   -5.7469    0.0000 C   0  0  0  0  0  0  0  0  0  0  0  0
    1.8414   -3.7445    0.0000 C   0  0  0  0  0  0  0  0  0  0  0  0
    2.0964   -2.9599    0.0000 C   0  0  0  0  0  0  0  0  0  0  0  0
    2.8810   -2.7050    0.0000 O   0  0  0  0  0  0  0  0  0  0  0  0
  1  2  1  0  0  0  0
  2  3  1  0  0  0  0
  2  4  1  0  0  0  0
  2  5  1  0  0  0  0
  5  6  1  0  0  0  0
  6  7  2  0  0  0  0
  6  8  1  0  0  0  0
  9  8  1  0  0  0  0
  9 10  1  6  0  0  0
 10 11  1  0  0  0  0
 11 12  2  0  0  0  0
 12 13  1  0  0  0  0
 13 14  2  0  0  0  0
 14 15  1  0  0  0  0
 15 16  2  0  0  0  0
 11 16  1  0  0  0  0
 16 17  1  0  0  0  0
  9 18  1  0  0  0  0
 18 19  1  0  0  0  0
 19 20  1  0  0  0  0
 20 21  2  0  0  0  0
 20 22  1  0  0  0  0
 22 23  2  0  0  0  0
 23 24  1  0  0  0  0
 23 25  1  0  0  0  0
 25 26  2  0  0  0  0
 26 27  1  0  0  0  0
 26 28  1  0  0  0  0
 28 29  1  0  0  0  0
 28 30  2  0  0  0  0
 22 30  1  0  0  0  0
 18 31  2  0  0  0  0
 31 32  1  0  0  0  0
  8 32  1  0  0  0  0
 32 33  2  0  0  0  0
M  END
> <ID>
CPD_4665

$$$$
CPD_4670
  Mrv1822 09091914012D          

 20 21  0  0  0  0            999 V2000
   -2.8579    5.7750    0.0000 C   0  0  0  0  0  0  0  0  0  0  0  0
   -2.8579    4.9500    0.0000 S   0  0  0  0  0  0  0  0  0  0  0  0
   -2.1434    4.5375    0.0000 C   0  0  0  0  0  0  0  0  0  0  0  0
   -2.1434    3.7125    0.0000 N   0  0  0  0  0  0  0  0  0  0  0  0
   -1.4289    3.3000    0.0000 C   0  0  0  0  0  0  0  0  0  0  0  0
   -0.7145    3.7125    0.0000 C   0  0  0  0  0  0  0  0  0  0  0  0
   -0.7145    4.5375    0.0000 C   0  0  0  0  0  0  0  0  0  0  0  0
   -1.4289    4.9500    0.0000 N   0  0  0  0  0  0  0  0  0  0  0  0
    0.0000    3.3000    0.0000 C   0  0  0  0  0  0  0  0  0  0  0  0
    0.0000    2.4750    0.0000 C   0  0  0  0  0  0  0  0  0  0  0  0
    0.7145    2.0625    0.0000 O   0  0  0  0  0  0  0  0  0  0  0  0
    1.4289    2.4750    0.0000 C   0  0  0  0  0  0  0  0  0  0  0  0
    1.4289    3.3000    0.0000 O   0  0  0  0  0  0  0  0  0  0  0  0
    2.1434    2.0625    0.0000 C   0  0  0  0  0  0  0  0  0  0  0  0
    2.8579    2.4750    0.0000 C   0  0  0  0  0  0  0  0  0  0  0  0
    3.5724    2.0625    0.0000 C   0  0  0  0  0  0  0  0  0  0  0  0
    4.2868    2.4750    0.0000 O   0  0  0  0  0  0  0  0  0  0  0  0
    3.5724    1.2375    0.0000 O   0  0  0  0  0  0  0  0  0  0  0  0
   -0.7145    2.0625    0.0000 C   0  0  0  0  0  0  0  0  0  0  0  0
   -1.4289    2.4750    0.0000 C   0  0  0  0  0  0  0  0  0  0  0  0
  1  2  1  0  0  0  0
  2  3  1  0  0  0  0
  3  4  2  0  0  0  0
  4  5  1  0  0  0  0
  5  6  2  0  0  0  0
  6  7  1  0  0  0  0
  7  8  2  0  0  0  0
  3  8  1  0  0  0  0
  6  9  1  0  0  0  0
  9 10  2  0  0  0  0
 10 11  1  0  0  0  0
 11 12  1  0  0  0  0
 12 13  2  0  0  0  0
 12 14  1  0  0  0  0
 14 15  1  0  0  0  0
 15 16  1  0  0  0  0
 16 17  1  0  0  0  0
 16 18  2  0  0  0  0
 10 19  1  0  0  0  0
 19 20  2  0  0  0  0
  5 20  1  0  0  0  0
M  END
> <ID>
CPD_4670

$$$$
CPD_4675
  Mrv1822 09091914012D          

 36 39  0  0  0  0            999 V2000
    2.7512    3.2384    0.0000 C   0  0  0  0  0  0  0  0  0  0  0  0
    2.0367    3.6509    0.0000 C   0  0  0  0  0  0  0  0  0  0  0  0
    1.3222    3.2384    0.0000 O   0  0  0  0  0  0  0  0  0  0  0  0
    0.6078    3.6509    0.0000 C   0  0  0  0  0  0  0  0  0  0  0  0
   -0.1067    3.2384    0.0000 C   0  0  0  0  0  0  0  0  0  0  0  0
   -0.8212    3.6509    0.0000 C   0  0  0  0  0  0  0  0  0  0  0  0
   -0.8212    4.4759    0.0000 C   0  0  0  0  0  0  0  0  0  0  0  0
   -0.1067    4.8884    0.0000 C   0  0  0  0  0  0  0  0  0  0  0  0
    0.6078    4.4759    0.0000 C   0  0  0  0  0  0  0  0  0  0  0  0
   -0.1067    2.4134    0.0000 N   0  0  0  0  0  0  0  0  0  0  0  0
    0.6078    2.0009    0.0000 C   0  0  0  0  0  0  0  0  0  0  0  0
    0.6078    1.1759    0.0000 C   0  0  0  0  0  0  0  0  0  0  0  0
   -0.1067    0.7634    0.0000 O   0  0  0  0  0  0  0  0  0  0  0  0
    1.3222    0.7634    0.0000 N   0  0  0  0  0  0  0  0  0  0  0  0
    2.0367    1.1759    0.0000 C   0  0  0  0  0  0  0  0  0  0  0  0
    2.0367    2.0009    0.0000 C   0  0  0  0  0  0  0  0  0  0  0  0
    2.7512    2.4134    0.0000 C   0  0  0  0  0  0  0  0  0  0  0  0
    3.4656    2.0009    0.0000 C   0  0  0  0  0  0  0  0  0  0  0  0
    3.4656    1.1759    0.0000 C   0  0  0  0  0  0  0  0  0  0  0  0
    2.7512    0.7634    0.0000 C   0  0  0  0  0  0  0  0  0  0  0  0
    2.7512   -0.0616    0.0000 N   0  0  0  0  0  0  0  0  0  0  0  0
    3.4186   -0.5465    0.0000 C   0  0  0  0  0  0  0  0  0  0  0  0
    3.1637   -1.3312    0.0000 C   0  0  0  0  0  0  0  0  0  0  0  0
    2.3387   -1.3312    0.0000 C   0  0  0  0  0  0  0  0  0  0  0  0
    2.0837   -0.5465    0.0000 C   0  0  0  0  0  0  0  0  0  0  0  0
    1.2991   -0.2916    0.0000 O   0  0  0  0  0  0  0  0  0  0  0  0
    4.1801    2.4134    0.0000 N   0  0  0  0  0  0  0  0  0  0  0  0
    4.2664    3.2339    0.0000 C   0  0  0  0  0  0  0  0  0  0  0  0
    5.0733    3.4054    0.0000 C   0  0  0  0  0  0  0  0  0  0  0  0
    5.4858    2.6909    0.0000 C   0  0  0  0  0  0  0  0  0  0  0  0
    4.9338    2.0778    0.0000 C   0  0  0  0  0  0  0  0  0  0  0  0
    5.1053    1.2709    0.0000 O   0  0  0  0  0  0  0  0  0  0  0  0
   -0.8212    2.0009    0.0000 S   0  0  0  0  0  0  0  0  0  0  0  0
   -1.5356    1.5884    0.0000 C   0  0  0  0  0  0  0  0  0  0  0  0
   -0.4087    1.2864    0.0000 O   0  0  0  0  0  0  0  0  0  0  0  0
   -1.2337    2.7154    0.0000 O   0  0  0  0  0  0  0  0  0  0  0  0
  1  2  1  0  0  0  0
  2  3  1  0  0  0  0
  3  4  1  0  0  0  0
  4  5  2  0  0  0  0
  5  6  1  0  0  0  0
  6  7  2  0  0  0  0
  7  8  1  0  0  0  0
  8  9  2  0  0  0  0
  4  9  1  0  0  0  0
  5 10  1  0  0  0  0
 10 11  1  0  0  0  0
 11 12  1  0  0  0  0
 12 13  2  0  0  0  0
 12 14  1  0  0  0  0
 14 15  1  0  0  0  0
 15 16  2  0  0  0  0
 16 17  1  0  0  0  0
 17 18  2  0  0  0  0
 18 19  1  0  0  0  0
 19 20  2  0  0  0  0
 15 20  1  0  0  0  0
 20 21  1  0  0  0  0
 21 22  1  0  0  0  0
 22 23  1  0  0  0  0
 23 24  1  0  0  0  0
 24 25  1  0  0  0  0
 21 25  1  0  0  0  0
 25 26  2  0  0  0  0
 18 27  1  0  0  0  0
 27 28  1  0  0  0  0
 28 29  1  0  0  0  0
 29 30  1  0  0  0  0
 30 31  1  0  0  0  0
 27 31  1  0  0  0  0
 31 32  2  0  0  0  0
 10 33  1  0  0  0  0
 33 34  1  0  0  0  0
 33 35  2  0  0  0  0
 33 36  2  0  0  0  0
M  END
> <ID>
CPD_4675

$$$$
CPD_4680
  Mrv1822 09091914012D          

 28 30  0  0  0  0            999 V2000
   -3.5724   -1.2375    0.0000 C   0  0  0  0  0  0  0  0  0  0  0  0
   -2.8579   -1.6500    0.0000 O   0  0  0  0  0  0  0  0  0  0  0  0
   -2.1434   -1.2375    0.0000 C   0  0  0  0  0  0  0  0  0  0  0  0
   -1.4289   -1.6500    0.0000 C   0  0  0  0  0  0  0  0  0  0  0  0
   -0.7145   -1.2375    0.0000 C   0  0  0  0  0  0  0  0  0  0  0  0
   -0.7145   -0.4125    0.0000 C   0  0  0  0  0  0  0  0  0  0  0  0
   -1.4289   -0.0000    0.0000 N   0  0  0  0  0  0  0  0  0  0  0  0
    0.0000   -1.6500    0.0000 C   0  0  0  0  0  0  0  0  0  0  0  0
    0.0000   -2.4750    0.0000 O   0  0  0  0  0  0  0  0  0  0  0  0
    0.7145   -1.2375    0.0000 N   0  0  0  0  0  0  0  0  0  0  0  0
    0.7145   -0.4125    0.0000 C   0  0  0  0  0  0  0  0  0  0  0  0
    0.0000   -0.0000    0.0000 C   0  0  0  0  0  0  0  0  0  0  0  0
    0.0000    0.8250    0.0000 C   0  0  0  0  0  0  0  0  0  0  0  0
    0.7145    1.2375    0.0000 C   0  0  0  0  0  0  0  0  0  0  0  0
    1.4289    0.8250    0.0000 C   0  0  0  0  0  0  0  0  0  0  0  0
    1.4289    0.0000    0.0000 C   0  0  0  0  0  0  0  0  0  0  0  0
    2.1434   -0.4125    0.0000 N   0  0  0  0  0  0  0  0  0  0  0  0
    2.8971   -0.0769    0.0000 C   0  0  0  0  0  0  0  0  0  0  0  0
    3.4491   -0.6900    0.0000 C   0  0  0  0  0  0  0  0  0  0  0  0
    3.0366   -1.4045    0.0000 C   0  0  0  0  0  0  0  0  0  0  0  0
    2.2296   -1.2330    0.0000 C   0  0  0  0  0  0  0  0  0  0  0  0
    1.6166   -1.7850    0.0000 O   0  0  0  0  0  0  0  0  0  0  0  0
    0.7145    2.0625    0.0000 N   0  0  0  0  0  0  0  0  0  0  0  0
    0.0470    2.5474    0.0000 C   0  0  0  0  0  0  0  0  0  0  0  0
    0.3020    3.3320    0.0000 C   0  0  0  0  0  0  0  0  0  0  0  0
    1.1270    3.3320    0.0000 C   0  0  0  0  0  0  0  0  0  0  0  0
    1.3819    2.5474    0.0000 C   0  0  0  0  0  0  0  0  0  0  0  0
    2.1665    2.2925    0.0000 O   0  0  0  0  0  0  0  0  0  0  0  0
  1  2  1  0  0  0  0
  2  3  1  0  0  0  0
  3  4  1  0  0  0  0
  4  5  1  0  0  0  0
  5  6  1  0  0  0  0
  6  7  1  0  0  0  0
  5  8  1  0  0  0  0
  8  9  2  0  0  0  0
  8 10  1  0  0  0  0
 10 11  1  0  0  0  0
 11 12  2  0  0  0  0
 12 13  1  0  0  0  0
 13 14  2  0  0  0  0
 14 15  1  0  0  0  0
 15 16  2  0  0  0  0
 11 16  1  0  0  0  0
 16 17  1  0  0  0  0
 17 18  1  0  0  0  0
 18 19  1  0  0  0  0
 19 20  1  0  0  0  0
 20 21  1  0  0  0  0
 17 21  1  0  0  0  0
 21 22  2  0  0  0  0
 14 23  1  0  0  0  0
 23 24  1  0  0  0  0
 24 25  1  0  0  0  0
 25 26  1  0  0  0  0
 26 27  1  0  0  0  0
 23 27  1  0  0  0  0
 27 28  2  0  0  0  0
M  END
> <ID>
CPD_4680

$$$$
CPD_4685
  Mrv1822 09091914012D          

 39 43  0  0  0  0            999 V2000
   -0.8212    7.7759    0.0000 C   0  0  0  0  0  0  0  0  0  0  0  0
   -0.8212    6.9509    0.0000 C   0  0  0  0  0  0  0  0  0  0  0  0
   -0.1067    6.5384    0.0000 C   0  0  0  0  0  0  0  0  0  0  0  0
   -0.1067    5.7134    0.0000 C   0  0  0  0  0  0  0  0  0  0  0  0
   -0.8212    5.3009    0.0000 C   0  0  0  0  0  0  0  0  0  0  0  0
   -1.5356    5.7134    0.0000 C   0  0  0  0  0  0  0  0  0  0  0  0
   -1.5356    6.5384    0.0000 C   0  0  0  0  0  0  0  0  0  0  0  0
   -0.8212    4.4759    0.0000 S   0  0  0  0  0  0  0  0  0  0  0  0
   -1.6462    4.4759    0.0000 O   0  0  0  0  0  0  0  0  0  0  0  0
    0.0038    4.4759    0.0000 O   0  0  0  0  0  0  0  0  0  0  0  0
   -0.8212    3.6509    0.0000 N   0  0  0  0  0  0  0  0  0  0  0  0
   -0.1067    3.2384    0.0000 C   0  0  0  0  0  0  0  0  0  0  0  0
    0.6078    3.6509    0.0000 C   0  0  0  0  0  0  0  0  0  0  0  0
    1.3222    3.2384    0.0000 C   0  0  0  0  0  0  0  0  0  0  0  0
    1.3222    2.4134    0.0000 C   0  0  0  0  0  0  0  0  0  0  0  0
    0.6078    2.0009    0.0000 C   0  0  0  0  0  0  0  0  0  0  0  0
    0.6078    1.1759    0.0000 C   0  0  0  0  0  0  0  0  0  0  0  0
   -0.1067    0.7634    0.0000 O   0  0  0  0  0  0  0  0  0  0  0  0
    1.3222    0.7634    0.0000 N   0  0  0  0  0  0  0  0  0  0  0  0
    2.0367    1.1759    0.0000 C   0  0  0  0  0  0  0  0  0  0  0  0
    2.0367    2.0009    0.0000 C   0  0  0  0  0  0  0  0  0  0  0  0
    2.7512    2.4134    0.0000 C   0  0  0  0  0  0  0  0  0  0  0  0
    3.4656    2.0009    0.0000 C   0  0  0  0  0  0  0  0  0  0  0  0
    3.4656    1.1759    0.0000 C   0  0  0  0  0  0  0  0  0  0  0  0
    2.7512    0.7634    0.0000 C   0  0  0  0  0  0  0  0  0  0  0  0
    2.7512   -0.0616    0.0000 N   0  0  0  0  0  0  0  0  0  0  0  0
    3.4186   -0.5465    0.0000 C   0  0  0  0  0  0  0  0  0  0  0  0
    3.1637   -1.3312    0.0000 C   0  0  0  0  0  0  0  0  0  0  0  0
    2.3387   -1.3312    0.0000 C   0  0  0  0  0  0  0  0  0  0  0  0
    2.0837   -0.5465    0.0000 C   0  0  0  0  0  0  0  0  0  0  0  0
    1.2991   -0.2916    0.0000 O   0  0  0  0  0  0  0  0  0  0  0  0
    4.1801    2.4134    0.0000 N   0  0  0  0  0  0  0  0  0  0  0  0
    4.2664    3.2339    0.0000 C   0  0  0  0  0  0  0  0  0  0  0  0
    5.0733    3.4054    0.0000 C   0  0  0  0  0  0  0  0  0  0  0  0
    5.4858    2.6909    0.0000 C   0  0  0  0  0  0  0  0  0  0  0  0
    4.9338    2.0778    0.0000 C   0  0  0  0  0  0  0  0  0  0  0  0
    5.1053    1.2709    0.0000 O   0  0  0  0  0  0  0  0  0  0  0  0
   -0.1067    2.4134    0.0000 C   0  0  0  0  0  0  0  0  0  0  0  0
   -0.8212    2.0009    0.0000 C   0  0  0  0  0  0  0  0  0  0  0  0
  1  2  1  0  0  0  0
  2  3  2  0  0  0  0
  3  4  1  0  0  0  0
  4  5  2  0  0  0  0
  5  6  1  0  0  0  0
  6  7  2  0  0  0  0
  2  7  1  0  0  0  0
  5  8  1  0  0  0  0
  8  9  2  0  0  0  0
  8 10  2  0  0  0  0
  8 11  1  0  0  0  0
 11 12  1  0  0  0  0
 12 13  2  0  0  0  0
 13 14  1  0  0  0  0
 14 15  2  0  0  0  0
 15 16  1  0  0  0  0
 16 17  1  0  0  0  0
 17 18  2  0  0  0  0
 17 19  1  0  0  0  0
 19 20  1  0  0  0  0
 20 21  2  0  0  0  0
 21 22  1  0  0  0  0
 22 23  2  0  0  0  0
 23 24  1  0  0  0  0
 24 25  2  0  0  0  0
 20 25  1  0  0  0  0
 25 26  1  0  0  0  0
 26 27  1  0  0  0  0
 27 28  1  0  0  0  0
 28 29  1  0  0  0  0
 29 30  1  0  0  0  0
 26 30  1  0  0  0  0
 30 31  2  0  0  0  0
 23 32  1  0  0  0  0
 32 33  1  0  0  0  0
 33 34  1  0  0  0  0
 34 35  1  0  0  0  0
 35 36  1  0  0  0  0
 32 36  1  0  0  0  0
 36 37  2  0  0  0  0
 16 38  2  0  0  0  0
 12 38  1  0  0  0  0
 38 39  1  0  0  0  0
M  END
> <ID>
CPD_4685

$$$$
CPD_4690
  Mrv1822 09091914012D          

 34 37  0  0  0  0            999 V2000
    4.2868   -4.9500    0.0000 O   0  0  0  0  0  0  0  0  0  0  0  0
    4.2868   -4.1250    0.0000 C   0  0  0  0  0  0  0  0  0  0  0  0
    3.5724   -3.7125    0.0000 C   0  0  0  0  0  0  0  0  0  0  0  0
    2.8579   -4.1250    0.0000 N   0  0  0  0  0  0  0  0  0  0  0  0
    2.1434   -3.7125    0.0000 C   0  0  0  0  0  0  0  0  0  0  0  0
    2.1434   -2.8875    0.0000 O   0  0  0  0  0  0  0  0  0  0  0  0
    1.4289   -4.1250    0.0000 C   0  0  0  0  0  0  0  0  0  0  0  0
    1.4289   -4.9500    0.0000 C   0  0  0  0  0  0  0  0  0  0  0  0
    0.7145   -5.3625    0.0000 C   0  0  0  0  0  0  0  0  0  0  0  0
    0.0000   -4.9500    0.0000 C   0  0  0  0  0  0  0  0  0  0  0  0
    0.0000   -4.1250    0.0000 N   0  0  0  0  0  0  0  0  0  0  0  0
    0.7145   -3.7125    0.0000 C   0  0  0  0  0  0  0  0  0  0  0  0
    0.7145   -2.8875    0.0000 O   0  0  0  0  0  0  0  0  0  0  0  0
    0.0000   -2.4750    0.0000 C   0  0  0  0  0  0  0  0  0  0  0  0
   -0.7145   -2.8875    0.0000 C   0  0  0  0  0  0  0  0  0  0  0  0
   -1.4289   -2.4750    0.0000 C   0  0  0  0  0  0  0  0  0  0  0  0
   -1.4289   -1.6500    0.0000 C   0  0  0  0  0  0  0  0  0  0  0  0
   -0.7145   -1.2375    0.0000 C   0  0  0  0  0  0  0  0  0  0  0  0
    0.0000   -1.6500    0.0000 C   0  0  0  0  0  0  0  0  0  0  0  0
    5.0013   -3.7125    0.0000 N   0  0  0  0  0  0  0  0  0  0  0  0
    5.7158   -4.1250    0.0000 C   0  0  0  0  0  0  0  0  0  0  0  0
    6.4302   -3.7125    0.0000 C   0  0  0  0  0  0  0  0  0  0  0  0
    7.1447   -4.1250    0.0000 C   0  0  0  0  0  0  0  0  0  0  0  0
    7.1447   -4.9500    0.0000 C   0  0  0  0  0  0  0  0  0  0  0  0
    7.8592   -5.3625    0.0000 N   0  0  0  0  0  0  0  0  0  0  0  0
    8.5737   -4.9500    0.0000 C   0  0  0  0  0  0  0  0  0  0  0  0
    8.5737   -4.1250    0.0000 O   0  0  0  0  0  0  0  0  0  0  0  0
    9.2881   -5.3625    0.0000 C   0  0  0  0  0  0  0  0  0  0  0  0
   10.0418   -5.0269    0.0000 C   0  0  0  0  0  0  0  0  0  0  0  0
   10.5938   -5.6400    0.0000 C   0  0  0  0  0  0  0  0  0  0  0  0
   10.1813   -6.3545    0.0000 C   0  0  0  0  0  0  0  0  0  0  0  0
    9.3744   -6.1830    0.0000 O   0  0  0  0  0  0  0  0  0  0  0  0
    6.4302   -5.3625    0.0000 C   0  0  0  0  0  0  0  0  0  0  0  0
    5.7158   -4.9500    0.0000 C   0  0  0  0  0  0  0  0  0  0  0  0
  1  2  2  0  0  0  0
  2  3  1  0  0  0  0
  3  4  1  0  0  0  0
  4  5  1  0  0  0  0
  5  6  2  0  0  0  0
  5  7  1  0  0  0  0
  7  8  2  0  0  0  0
  8  9  1  0  0  0  0
  9 10  2  0  0  0  0
 10 11  1  0  0  0  0
 11 12  2  0  0  0  0
  7 12  1  0  0  0  0
 12 13  1  0  0  0  0
 13 14  1  0  0  0  0
 14 15  2  0  0  0  0
 15 16  1  0  0  0  0
 16 17  2  0  0  0  0
 17 18  1  0  0  0  0
 18 19  2  0  0  0  0
 14 19  1  0  0  0  0
  2 20  1  0  0  0  0
 20 21  1  0  0  0  0
 21 22  2  0  0  0  0
 22 23  1  0  0  0  0
 23 24  2  0  0  0  0
 24 25  1  0  0  0  0
 25 26  1  0  0  0  0
 26 27  2  0  0  0  0
 26 28  1  0  0  0  0
 28 29  2  0  0  0  0
 29 30  1  0  0  0  0
 30 31  2  0  0  0  0
 31 32  1  0  0  0  0
 28 32  1  0  0  0  0
 24 33  1  0  0  0  0
 33 34  2  0  0  0  0
 21 34  1  0  0  0  0
M  END
> <ID>
CPD_4690

$$$$
CPD_4695
  Mrv1822 09091914012D          

 31 34  0  0  0  0            999 V2000
   -4.7727    1.4407    0.0000 F   0  0  0  0  0  0  0  0  0  0  0  0
   -3.9477    1.4407    0.0000 C   0  0  0  0  0  0  0  0  0  0  0  0
   -3.5352    2.1551    0.0000 C   0  0  0  0  0  0  0  0  0  0  0  0
   -2.7102    2.1551    0.0000 C   0  0  0  0  0  0  0  0  0  0  0  0
   -2.2977    1.4407    0.0000 C   0  0  0  0  0  0  0  0  0  0  0  0
   -1.4907    1.6122    0.0000 N   0  0  0  0  0  0  0  0  0  0  0  0
   -1.4045    2.4327    0.0000 C   0  0  0  0  0  0  0  0  0  0  0  0
   -2.1582    2.7682    0.0000 C   0  0  0  0  0  0  0  0  0  0  0  0
   -0.6900    2.8452    0.0000 C   0  0  0  0  0  0  0  0  0  0  0  0
   -0.6900    3.6702    0.0000 O   0  0  0  0  0  0  0  0  0  0  0  0
    0.0244    2.4327    0.0000 N   0  0  0  0  0  0  0  0  0  0  0  0
    0.7389    2.8452    0.0000 C   0  0  0  0  0  0  0  0  0  0  0  0
    1.4534    2.4327    0.0000 C   0  0  0  0  0  0  0  0  0  0  0  0
    1.4534    1.6077    0.0000 O   0  0  0  0  0  0  0  0  0  0  0  0
    2.1678    2.8452    0.0000 N   0  0  0  0  0  0  0  0  0  0  0  0
    2.8823    2.4327    0.0000 C   0  0  0  0  0  0  0  0  0  0  0  0
    3.5968    2.8452    0.0000 C   0  0  0  0  0  0  0  0  0  0  0  0
    4.3113    2.4327    0.0000 C   0  0  0  0  0  0  0  0  0  0  0  0
    4.3113    1.6077    0.0000 C   0  0  0  0  0  0  0  0  0  0  0  0
    5.0257    1.1952    0.0000 N   0  0  0  0  0  0  0  0  0  0  0  0
    5.7402    1.6077    0.0000 C   0  0  0  0  0  0  0  0  0  0  0  0
    5.7402    2.4327    0.0000 O   0  0  0  0  0  0  0  0  0  0  0  0
    6.4547    1.1952    0.0000 C   0  0  0  0  0  0  0  0  0  0  0  0
    7.2083    1.5307    0.0000 C   0  0  0  0  0  0  0  0  0  0  0  0
    7.7604    0.9176    0.0000 C   0  0  0  0  0  0  0  0  0  0  0  0
    7.3479    0.2032    0.0000 C   0  0  0  0  0  0  0  0  0  0  0  0
    6.5409    0.3747    0.0000 O   0  0  0  0  0  0  0  0  0  0  0  0
    3.5968    1.1952    0.0000 C   0  0  0  0  0  0  0  0  0  0  0  0
    2.8823    1.6077    0.0000 C   0  0  0  0  0  0  0  0  0  0  0  0
   -2.7102    0.7262    0.0000 C   0  0  0  0  0  0  0  0  0  0  0  0
   -3.5352    0.7262    0.0000 C   0  0  0  0  0  0  0  0  0  0  0  0
  1  2  1  0  0  0  0
  2  3  2  0  0  0  0
  3  4  1  0  0  0  0
  4  5  2  0  0  0  0
  5  6  1  0  0  0  0
  6  7  1  0  0  0  0
  7  8  2  0  0  0  0
  4  8  1  0  0  0  0
  7  9  1  0  0  0  0
  9 10  2  0  0  0  0
  9 11  1  0  0  0  0
 11 12  1  0  0  0  0
 12 13  1  0  0  0  0
 13 14  2  0  0  0  0
 13 15  1  0  0  0  0
 15 16  1  0  0  0  0
 16 17  2  0  0  0  0
 17 18  1  0  0  0  0
 18 19  2  0  0  0  0
 19 20  1  0  0  0  0
 20 21  1  0  0  0  0
 21 22  2  0  0  0  0
 21 23  1  0  0  0  0
 23 24  2  0  0  0  0
 24 25  1  0  0  0  0
 25 26  2  0  0  0  0
 26 27  1  0  0  0  0
 23 27  1  0  0  0  0
 19 28  1  0  0  0  0
 28 29  2  0  0  0  0
 16 29  1  0  0  0  0
  5 30  1  0  0  0  0
 30 31  2  0  0  0  0
  2 31  1  0  0  0  0
M  END
> <ID>
CPD_4695

$$$$
CPD_4700
  Mrv1822 09091914012D          

 25 27  0  0  1  0            999 V2000
    4.2868   -4.9500    0.0000 O   0  0  0  0  0  0  0  0  0  0  0  0
    4.2868   -4.1250    0.0000 C   0  0  1  0  0  0  0  0  0  0  0  0
    3.5724   -3.7125    0.0000 C   0  0  0  0  0  0  0  0  0  0  0  0
    2.8579   -4.1250    0.0000 N   0  0  0  0  0  0  0  0  0  0  0  0
    2.1434   -3.7125    0.0000 C   0  0  0  0  0  0  0  0  0  0  0  0
    2.1434   -2.8875    0.0000 O   0  0  0  0  0  0  0  0  0  0  0  0
    1.4289   -4.1250    0.0000 C   0  0  0  0  0  0  0  0  0  0  0  0
    0.7145   -3.7125    0.0000 C   0  0  0  0  0  0  0  0  0  0  0  0
   -0.0980   -3.5692    0.0000 C   0  0  0  0  0  0  0  0  0  0  0  0
   -0.3802   -2.7940    0.0000 C   0  0  0  0  0  0  0  0  0  0  0  0
    0.1501   -2.1620    0.0000 C   0  0  0  0  0  0  0  0  0  0  0  0
    0.9626   -2.3053    0.0000 C   0  0  0  0  0  0  0  0  0  0  0  0
    1.2448   -3.0805    0.0000 C   0  0  0  0  0  0  0  0  0  0  0  0
    0.4323   -4.4877    0.0000 N   0  0  0  0  0  0  0  0  0  0  0  0
    0.8936   -5.1717    0.0000 C   0  0  0  0  0  0  0  0  0  0  0  0
    0.3857   -5.8218    0.0000 C   0  0  0  0  0  0  0  0  0  0  0  0
   -0.3895   -5.5396    0.0000 C   0  0  0  0  0  0  0  0  0  0  0  0
   -0.3607   -4.7151    0.0000 C   0  0  0  0  0  0  0  0  0  0  0  0
    5.0013   -3.7125    0.0000 C   0  0  0  0  0  0  0  0  0  0  0  0
    5.7158   -4.1250    0.0000 N   0  0  0  0  0  0  0  0  0  0  0  0
    6.4302   -3.7125    0.0000 C   0  0  0  0  0  0  0  0  0  0  0  0
    7.1447   -4.1250    0.0000 C   0  0  0  0  0  0  0  0  0  0  0  0
    7.1447   -4.9500    0.0000 O   0  0  0  0  0  0  0  0  0  0  0  0
    6.4302   -5.3625    0.0000 C   0  0  0  0  0  0  0  0  0  0  0  0
    5.7158   -4.9500    0.0000 C   0  0  0  0  0  0  0  0  0  0  0  0
  2  1  1  1  0  0  0
  2  3  1  0  0  0  0
  3  4  1  0  0  0  0
  4  5  1  0  0  0  0
  5  6  2  0  0  0  0
  5  7  1  0  0  0  0
  7  8  1  0  0  0  0
  8  9  1  0  0  0  0
  9 10  1  0  0  0  0
 10 11  1  0  0  0  0
 11 12  1  0  0  0  0
 12 13  1  0  0  0  0
  8 13  1  0  0  0  0
  8 14  1  0  0  0  0
 14 15  1  0  0  0  0
 15 16  2  0  0  0  0
 16 17  1  0  0  0  0
 17 18  2  0  0  0  0
 14 18  1  0  0  0  0
  2 19  1  0  0  0  0
 19 20  1  0  0  0  0
 20 21  1  0  0  0  0
 21 22  1  0  0  0  0
 22 23  1  0  0  0  0
 23 24  1  0  0  0  0
 24 25  1  0  0  0  0
 20 25  1  0  0  0  0
M  END
> <ID>
CPD_4700

$$$$
CPD_4705
  Mrv1822 09091914012D          

 24 26  0  0  0  0            999 V2000
    0.7145    3.7125    0.0000 F   0  0  0  0  0  0  0  0  0  0  0  0
    0.0000    3.3000    0.0000 C   0  0  0  0  0  0  0  0  0  0  0  0
    0.0000    2.4750    0.0000 C   0  0  0  0  0  0  0  0  0  0  0  0
   -0.7145    2.0625    0.0000 C   0  0  0  0  0  0  0  0  0  0  0  0
   -0.7145    1.2375    0.0000 N   0  0  0  0  0  0  0  0  0  0  0  0
    0.0000    0.8250    0.0000 C   0  0  0  0  0  0  0  0  0  0  0  0
    0.7145    1.2375    0.0000 O   0  0  0  0  0  0  0  0  0  0  0  0
    0.0000   -0.0000    0.0000 C   0  0  0  0  0  0  0  0  0  0  0  0
   -0.7145   -0.4125    0.0000 C   0  0  0  0  0  0  0  0  0  0  0  0
   -0.7145   -1.2375    0.0000 C   0  0  0  0  0  0  0  0  0  0  0  0
    0.0000   -1.6500    0.0000 C   0  0  0  0  0  0  0  0  0  0  0  0
    0.7145   -1.2375    0.0000 C   0  0  0  0  0  0  0  0  0  0  0  0
    0.7145   -0.4125    0.0000 C   0  0  0  0  0  0  0  0  0  0  0  0
    1.4289   -0.0000    0.0000 N   0  0  0  0  0  0  0  0  0  0  0  0
    2.1434   -0.4125    0.0000 C   0  0  0  0  0  0  0  0  0  0  0  0
    2.1434   -1.2375    0.0000 C   0  0  0  0  0  0  0  0  0  0  0  0
    1.4289   -1.6500    0.0000 C   0  0  0  0  0  0  0  0  0  0  0  0
    1.4289   -2.4750    0.0000 Cl  0  0  0  0  0  0  0  0  0  0  0  0
   -1.4289    2.4750    0.0000 C   0  0  0  0  0  0  0  0  0  0  0  0
   -1.4289    3.3000    0.0000 C   0  0  0  0  0  0  0  0  0  0  0  0
   -2.1434    3.7125    0.0000 C   0  0  0  0  0  0  0  0  0  0  0  0
   -2.8579    4.1250    0.0000 N   0  0  0  0  0  0  0  0  0  0  0  0
   -0.7145    3.7125    0.0000 C   0  0  0  0  0  0  0  0  0  0  0  0
   -0.7145    4.5375    0.0000 F   0  0  0  0  0  0  0  0  0  0  0  0
  1  2  1  0  0  0  0
  2  3  2  0  0  0  0
  3  4  1  0  0  0  0
  4  5  1  0  0  0  0
  5  6  1  0  0  0  0
  6  7  2  0  0  0  0
  6  8  1  0  0  0  0
  8  9  2  0  0  0  0
  9 10  1  0  0  0  0
 10 11  2  0  0  0  0
 11 12  1  0  0  0  0
 12 13  2  0  0  0  0
  8 13  1  0  0  0  0
 13 14  1  0  0  0  0
 14 15  2  0  0  0  0
 15 16  1  0  0  0  0
 16 17  2  0  0  0  0
 12 17  1  0  0  0  0
 17 18  1  0  0  0  0
  4 19  2  0  0  0  0
 19 20  1  0  0  0  0
 20 21  1  0  0  0  0
 21 22  3  0  0  0  0
 20 23  2  0  0  0  0
  2 23  1  0  0  0  0
 23 24  1  0  0  0  0
M  END
> <ID>
CPD_4705

$$$$
CPD_4710
  Mrv1822 09091914012D          

 26 27  0  0  0  0            999 V2000
    5.3614   -3.3739    0.0000 C   0  0  0  0  0  0  0  0  0  0  0  0
    4.7483   -2.8218    0.0000 C   0  0  0  0  0  0  0  0  0  0  0  0
    3.9637   -3.0768    0.0000 N   0  0  0  0  0  0  0  0  0  0  0  0
    3.3506   -2.5247    0.0000 C   0  0  0  0  0  0  0  0  0  0  0  0
    3.5221   -1.7178    0.0000 O   0  0  0  0  0  0  0  0  0  0  0  0
    2.5660   -2.7797    0.0000 C   0  0  0  0  0  0  0  0  0  0  0  0
    2.3110   -3.5643    0.0000 C   0  0  0  0  0  0  0  0  0  0  0  0
    1.4860   -3.5643    0.0000 C   0  0  0  0  0  0  0  0  0  0  0  0
    1.2311   -2.7797    0.0000 C   0  0  0  0  0  0  0  0  0  0  0  0
    0.4774   -3.1152    0.0000 C   0  0  0  0  0  0  0  0  0  0  0  0
    0.8186   -2.0652    0.0000 C   0  0  0  0  0  0  0  0  0  0  0  0
    1.2311   -1.3507    0.0000 O   0  0  0  0  0  0  0  0  0  0  0  0
   -0.0064   -2.0652    0.0000 N   0  0  0  0  0  0  0  0  0  0  0  0
   -0.4189   -1.3507    0.0000 C   0  0  0  0  0  0  0  0  0  0  0  0
   -1.2439   -1.3507    0.0000 C   0  0  0  0  0  0  0  0  0  0  0  0
   -1.6564   -0.6363    0.0000 C   0  0  0  0  0  0  0  0  0  0  0  0
   -2.4814   -0.6363    0.0000 C   0  0  0  0  0  0  0  0  0  0  0  0
   -3.3064   -0.6363    0.0000 N   0  0  0  0  0  0  0  0  0  0  0  0
   -1.2439    0.0782    0.0000 C   0  0  0  0  0  0  0  0  0  0  0  0
   -1.6564    0.7927    0.0000 F   0  0  0  0  0  0  0  0  0  0  0  0
   -0.4189    0.0782    0.0000 C   0  0  0  0  0  0  0  0  0  0  0  0
   -0.0064    0.7927    0.0000 F   0  0  0  0  0  0  0  0  0  0  0  0
   -0.0064   -0.6363    0.0000 C   0  0  0  0  0  0  0  0  0  0  0  0
    1.8985   -2.2947    0.0000 C   0  0  0  0  0  0  0  0  0  0  0  0
    1.4935   -1.5760    0.0000 C   0  0  0  0  0  0  0  0  0  0  0  0
    2.3035   -1.5760    0.0000 C   0  0  0  0  0  0  0  0  0  0  0  0
  1  2  1  0  0  0  0
  2  3  1  0  0  0  0
  3  4  1  0  0  0  0
  4  5  2  0  0  0  0
  4  6  1  0  0  0  0
  6  7  1  0  0  0  0
  7  8  1  0  0  0  0
  8  9  1  0  0  0  0
  9 10  1  0  0  0  0
  9 11  1  0  0  0  0
 11 12  2  0  0  0  0
 11 13  1  0  0  0  0
 13 14  1  0  0  0  0
 14 15  2  0  0  0  0
 15 16  1  0  0  0  0
 16 17  1  0  0  0  0
 17 18  3  0  0  0  0
 16 19  2  0  0  0  0
 19 20  1  0  0  0  0
 19 21  1  0  0  0  0
 21 22  1  0  0  0  0
 21 23  2  0  0  0  0
 14 23  1  0  0  0  0
  9 24  1  0  0  0  0
  6 24  1  0  0  0  0
 24 25  1  0  0  0  0
 24 26  1  0  0  0  0
M  END
> <ID>
CPD_4710

$$$$
CPD_4715
  Mrv1822 09091914012D          

 21 22  0  0  1  0            999 V2000
   -0.1258    0.2150    0.0000 C   0  0  0  0  0  0  0  0  0  0  0  0
   -0.9508    0.2150    0.0000 C   0  0  0  0  0  0  0  0  0  0  0  0
   -1.3633   -0.4995    0.0000 C   0  0  0  0  0  0  0  0  0  0  0  0
   -1.3633    0.9295    0.0000 C   0  0  0  0  0  0  0  0  0  0  0  0
   -0.9508    1.6439    0.0000 C   0  0  2  0  0  0  0  0  0  0  0  0
   -0.1258    1.6439    0.0000 N   0  0  0  0  0  0  0  0  0  0  0  0
    0.2867    0.9295    0.0000 C   0  0  0  0  0  0  0  0  0  0  0  0
    0.3729    0.1090    0.0000 O   0  0  0  0  0  0  0  0  0  0  0  0
    1.1117    0.9295    0.0000 C   0  0  0  0  0  0  0  0  0  0  0  0
    1.5242    1.6439    0.0000 N   0  0  0  0  0  0  0  0  0  0  0  0
   -1.3633    2.3584    0.0000 C   0  0  0  0  0  0  0  0  0  0  0  0
   -0.9508    3.0729    0.0000 O   0  0  0  0  0  0  0  0  0  0  0  0
   -2.1883    2.3584    0.0000 N   0  0  0  0  0  0  0  0  0  0  0  0
   -2.5462    3.1017    0.0000 C   0  0  0  0  0  0  0  0  0  0  0  0
   -3.3506    3.2853    0.0000 C   0  0  0  0  0  0  0  0  0  0  0  0
   -3.9956    2.7709    0.0000 C   0  0  0  0  0  0  0  0  0  0  0  0
   -3.9956    1.9459    0.0000 C   0  0  0  0  0  0  0  0  0  0  0  0
   -3.3506    1.4315    0.0000 C   0  0  0  0  0  0  0  0  0  0  0  0
   -2.5462    1.6151    0.0000 C   0  0  0  0  0  0  0  0  0  0  0  0
   -3.5823    2.3584    0.0000 N   0  0  0  0  0  0  0  0  0  0  0  0
   -4.4073    2.3584    0.0000 C   0  0  0  0  0  0  0  0  0  0  0  0
  1  2  1  0  0  0  0
  2  3  1  0  0  0  0
  2  4  1  0  0  0  0
  5  4  1  0  0  0  0
  5  6  1  1  0  0  0
  6  7  1  0  0  0  0
  7  8  2  0  0  0  0
  7  9  1  0  0  0  0
  9 10  1  0  0  0  0
  5 11  1  0  0  0  0
 11 12  2  0  0  0  0
 11 13  1  0  0  0  0
 13 14  1  0  0  0  0
 14 15  1  0  0  0  0
 15 16  1  0  0  0  0
 16 17  1  0  0  0  0
 17 18  1  0  0  0  0
 18 19  1  0  0  0  0
 13 19  1  0  0  0  0
 18 20  1  0  0  0  0
 15 20  1  0  0  0  0
 20 21  1  0  0  0  0
M  END
> <ID>
CPD_4715

$$$$
CPD_4720
  Mrv1822 09091914012D          

 24 26  0  0  1  0            999 V2000
    2.1787   -0.2550    0.0000 C   0  0  0  0  0  0  0  0  0  0  0  0
    1.3941   -0.0001    0.0000 N   0  0  0  0  0  0  0  0  0  0  0  0
    1.1624    0.9268    0.0000 C   0  0  0  0  0  0  0  0  0  0  0  0
    0.5174    0.4124    0.0000 C   0  0  0  0  0  0  0  0  0  0  0  0
    0.5174   -0.4126    0.0000 C   0  0  0  0  0  0  0  0  0  0  0  0
    1.1624   -0.9270    0.0000 C   0  0  0  0  0  0  0  0  0  0  0  0
    1.9667   -0.7434    0.0000 C   0  0  0  0  0  0  0  0  0  0  0  0
    2.3247   -0.0001    0.0000 N   0  0  0  0  0  0  0  0  0  0  0  0
    1.9667    0.7432    0.0000 C   0  0  0  0  0  0  0  0  0  0  0  0
    3.1497   -0.0001    0.0000 C   0  0  0  0  0  0  0  0  0  0  0  0
    3.5622   -0.7146    0.0000 O   0  0  0  0  0  0  0  0  0  0  0  0
    3.5622    0.7144    0.0000 C   0  0  2  0  0  0  0  0  0  0  0  0
    3.1497    1.4288    0.0000 C   0  0  0  0  0  0  0  0  0  0  0  0
    3.5622    2.1433    0.0000 C   0  0  0  0  0  0  0  0  0  0  0  0
    4.3872    2.1433    0.0000 C   0  0  0  0  0  0  0  0  0  0  0  0
    4.7997    1.4288    0.0000 C   0  0  0  0  0  0  0  0  0  0  0  0
    4.3872    0.7144    0.0000 N   0  0  0  0  0  0  0  0  0  0  0  0
    4.7997   -0.0001    0.0000 C   0  0  0  0  0  0  0  0  0  0  0  0
    5.6247   -0.0001    0.0000 O   0  0  0  0  0  0  0  0  0  0  0  0
    4.3872   -0.7146    0.0000 O   0  0  0  0  0  0  0  0  0  0  0  0
    4.7997   -1.4290    0.0000 C   0  0  0  0  0  0  0  0  0  0  0  0
    5.2122   -2.1435    0.0000 C   0  0  0  0  0  0  0  0  0  0  0  0
    4.0852   -1.8415    0.0000 C   0  0  0  0  0  0  0  0  0  0  0  0
    5.5141   -1.0165    0.0000 C   0  0  0  0  0  0  0  0  0  0  0  0
  1  2  1  0  0  0  0
  2  3  1  0  0  0  0
  3  4  1  0  0  0  0
  4  5  1  0  0  0  0
  5  6  1  0  0  0  0
  2  6  1  0  0  0  0
  6  7  1  0  0  0  0
  7  8  1  0  0  0  0
  8  9  1  0  0  0  0
  3  9  1  0  0  0  0
  8 10  1  0  0  0  0
 10 11  2  0  0  0  0
 12 10  1  6  0  0  0
 12 13  1  0  0  0  0
 13 14  1  0  0  0  0
 14 15  1  0  0  0  0
 15 16  1  0  0  0  0
 16 17  1  0  0  0  0
 12 17  1  0  0  0  0
 17 18  1  0  0  0  0
 18 19  2  0  0  0  0
 18 20  1  0  0  0  0
 20 21  1  0  0  0  0
 21 22  1  0  0  0  0
 21 23  1  0  0  0  0
 21 24  1  0  0  0  0
M  END
> <ID>
CPD_4720

$$$$
CPD_4725
  Mrv1822 09091914012D          

 23 25  0  0  0  0            999 V2000
    2.1787   -0.2550    0.0000 C   0  0  0  0  0  0  0  0  0  0  0  0
    1.3941   -0.0001    0.0000 N   0  0  0  0  0  0  0  0  0  0  0  0
    1.1624    0.9268    0.0000 C   0  0  0  0  0  0  0  0  0  0  0  0
    0.5174    0.4124    0.0000 C   0  0  0  0  0  0  0  0  0  0  0  0
    0.5174   -0.4126    0.0000 C   0  0  0  0  0  0  0  0  0  0  0  0
    1.1624   -0.9270    0.0000 C   0  0  0  0  0  0  0  0  0  0  0  0
    1.9667   -0.7434    0.0000 C   0  0  0  0  0  0  0  0  0  0  0  0
    2.3247   -0.0001    0.0000 N   0  0  0  0  0  0  0  0  0  0  0  0
    1.9667    0.7432    0.0000 C   0  0  0  0  0  0  0  0  0  0  0  0
    3.1497   -0.0001    0.0000 C   0  0  0  0  0  0  0  0  0  0  0  0
    3.5622   -0.7146    0.0000 O   0  0  0  0  0  0  0  0  0  0  0  0
    3.5622    0.7144    0.0000 C   0  0  0  0  0  0  0  0  0  0  0  0
    4.3872    0.7144    0.0000 C   0  0  0  0  0  0  0  0  0  0  0  0
    4.7997    1.4288    0.0000 C   0  0  0  0  0  0  0  0  0  0  0  0
    5.6247    1.4288    0.0000 C   0  0  0  0  0  0  0  0  0  0  0  0
    6.0372    0.7144    0.0000 C   0  0  0  0  0  0  0  0  0  0  0  0
    6.8622    0.7144    0.0000 O   0  0  0  0  0  0  0  0  0  0  0  0
    7.2747    1.4288    0.0000 C   0  0  0  0  0  0  0  0  0  0  0  0
    7.6872    2.1433    0.0000 F   0  0  0  0  0  0  0  0  0  0  0  0
    7.9891    1.0163    0.0000 F   0  0  0  0  0  0  0  0  0  0  0  0
    6.5602    1.8413    0.0000 F   0  0  0  0  0  0  0  0  0  0  0  0
    5.6247   -0.0001    0.0000 C   0  0  0  0  0  0  0  0  0  0  0  0
    4.7997   -0.0001    0.0000 C   0  0  0  0  0  0  0  0  0  0  0  0
  1  2  1  0  0  0  0
  2  3  1  0  0  0  0
  3  4  1  0  0  0  0
  4  5  1  0  0  0  0
  5  6  1  0  0  0  0
  2  6  1  0  0  0  0
  6  7  1  0  0  0  0
  7  8  1  0  0  0  0
  8  9  1  0  0  0  0
  3  9  1  0  0  0  0
  8 10  1  0  0  0  0
 10 11  2  0  0  0  0
 10 12  1  0  0  0  0
 12 13  1  0  0  0  0
 13 14  2  0  0  0  0
 14 15  1  0  0  0  0
 15 16  2  0  0  0  0
 16 17  1  0  0  0  0
 17 18  1  0  0  0  0
 18 19  1  0  0  0  0
 18 20  1  0  0  0  0
 18 21  1  0  0  0  0
 16 22  1  0  0  0  0
 22 23  2  0  0  0  0
 13 23  1  0  0  0  0
M  END
> <ID>
CPD_4725

$$$$
CPD_4730
  Mrv1822 09091914012D          

 25 28  0  0  1  0            999 V2000
    0.8517   -2.4835    0.0000 H   0  0  0  0  0  0  0  0  0  0  0  0
    0.8517   -1.6585    0.0000 C   0  0  1  0  0  0  0  0  0  0  0  0
    0.1163   -2.0322    0.0000 C   0  0  0  0  0  0  0  0  0  0  0  0
    0.5657   -1.2419    0.0000 C   0  0  2  0  0  0  0  0  0  0  0  0
   -0.2319   -1.0310    0.0000 H   0  0  0  0  0  0  0  0  0  0  0  0
    1.3012   -1.6156    0.0000 C   0  0  0  0  0  0  0  0  0  0  0  0
    2.0368   -1.2419    0.0000 C   0  0  2  0  0  0  0  0  0  0  0  0
    2.8344   -1.4529    0.0000 C   0  0  0  0  0  0  0  0  0  0  0  0
    1.5873   -2.0322    0.0000 C   0  0  0  0  0  0  0  0  0  0  0  0
    2.0368   -0.4945    0.0000 C   0  0  0  0  0  0  0  0  0  0  0  0
    1.3012   -0.1208    0.0000 C   0  0  2  0  0  0  0  0  0  0  0  0
    0.8517   -0.9111    0.0000 C   0  0  0  0  0  0  0  0  0  0  0  0
    0.5657   -0.4945    0.0000 C   0  0  0  0  0  0  0  0  0  0  0  0
    1.3012    0.7042    0.0000 N   0  0  0  0  0  0  0  0  0  0  0  0
    0.5867    1.1167    0.0000 C   0  0  0  0  0  0  0  0  0  0  0  0
   -0.1278    0.7042    0.0000 O   0  0  0  0  0  0  0  0  0  0  0  0
    0.5867    1.9417    0.0000 C   0  0  0  0  0  0  0  0  0  0  0  0
   -0.1278    2.3542    0.0000 C   0  0  0  0  0  0  0  0  0  0  0  0
   -0.1278    3.1792    0.0000 C   0  0  0  0  0  0  0  0  0  0  0  0
    0.5866    3.5917    0.0000 C   0  0  0  0  0  0  0  0  0  0  0  0
    1.3011    3.1792    0.0000 C   0  0  0  0  0  0  0  0  0  0  0  0
    1.3011    2.3542    0.0000 C   0  0  0  0  0  0  0  0  0  0  0  0
    0.5866    4.4167    0.0000 C   0  0  0  0  0  0  0  0  0  0  0  0
   -0.1279    4.8292    0.0000 O   0  0  0  0  0  0  0  0  0  0  0  0
    1.3011    4.8292    0.0000 O   0  0  0  0  0  0  0  0  0  0  0  0
  2  1  1  1  0  0  0
  2  3  1  0  0  0  0
  4  3  1  0  0  0  0
  4  5  1  6  0  0  0
  4  6  1  0  0  0  0
  7  6  1  0  0  0  0
  7  8  1  6  0  0  0
  7  9  1  0  0  0  0
  2  9  1  0  0  0  0
 11 13  1  0  0  0  0
 11 10  1  0  0  0  0
 11 12  1  0  0  0  0
  2 12  1  0  0  0  0
  7 10  1  0  0  0  0
  4 13  1  0  0  0  0
 11 14  1  1  0  0  0
 14 15  1  0  0  0  0
 15 16  2  0  0  0  0
 15 17  1  0  0  0  0
 17 18  2  0  0  0  0
 18 19  1  0  0  0  0
 19 20  2  0  0  0  0
 20 21  1  0  0  0  0
 21 22  2  0  0  0  0
 17 22  1  0  0  0  0
 20 23  1  0  0  0  0
 23 24  1  0  0  0  0
 23 25  2  0  0  0  0
M  END
> <ID>
CPD_4730

$$$$
CPD_4735
  Mrv1822 09091914012D          

 25 28  0  0  1  0            999 V2000
    0.8517   -2.4835    0.0000 H   0  0  0  0  0  0  0  0  0  0  0  0
    0.8517   -1.6585    0.0000 C   0  0  1  0  0  0  0  0  0  0  0  0
    0.1163   -2.0322    0.0000 C   0  0  0  0  0  0  0  0  0  0  0  0
    0.5657   -1.2419    0.0000 C   0  0  2  0  0  0  0  0  0  0  0  0
   -0.2319   -1.0310    0.0000 H   0  0  0  0  0  0  0  0  0  0  0  0
    1.3012   -1.6156    0.0000 C   0  0  0  0  0  0  0  0  0  0  0  0
    2.0368   -1.2419    0.0000 C   0  0  2  0  0  0  0  0  0  0  0  0
    2.8344   -1.4529    0.0000 C   0  0  0  0  0  0  0  0  0  0  0  0
    1.5873   -2.0322    0.0000 C   0  0  0  0  0  0  0  0  0  0  0  0
    2.0368   -0.4945    0.0000 C   0  0  0  0  0  0  0  0  0  0  0  0
    1.3012   -0.1208    0.0000 C   0  0  2  0  0  0  0  0  0  0  0  0
    0.8517   -0.9111    0.0000 C   0  0  0  0  0  0  0  0  0  0  0  0
    0.5657   -0.4945    0.0000 C   0  0  0  0  0  0  0  0  0  0  0  0
    1.3012    0.7042    0.0000 N   0  0  0  0  0  0  0  0  0  0  0  0
    0.5867    1.1167    0.0000 C   0  0  0  0  0  0  0  0  0  0  0  0
   -0.1278    0.7042    0.0000 O   0  0  0  0  0  0  0  0  0  0  0  0
    0.5867    1.9417    0.0000 C   0  0  0  0  0  0  0  0  0  0  0  0
   -0.1278    2.3542    0.0000 C   0  0  0  0  0  0  0  0  0  0  0  0
   -0.8423    1.9416    0.0000 O   0  0  0  0  0  0  0  0  0  0  0  0
   -1.5568    2.3541    0.0000 C   0  0  0  0  0  0  0  0  0  0  0  0
   -0.1278    3.1792    0.0000 C   0  0  0  0  0  0  0  0  0  0  0  0
    0.5866    3.5917    0.0000 C   0  0  0  0  0  0  0  0  0  0  0  0
    0.5866    4.4167    0.0000 Cl  0  0  0  0  0  0  0  0  0  0  0  0
    1.3011    3.1792    0.0000 C   0  0  0  0  0  0  0  0  0  0  0  0
    1.3011    2.3542    0.0000 C   0  0  0  0  0  0  0  0  0  0  0  0
  2  1  1  1  0  0  0
  2  3  1  0  0  0  0
  4  3  1  0  0  0  0
  4  5  1  6  0  0  0
  4  6  1  0  0  0  0
  7  6  1  0  0  0  0
  7  8  1  6  0  0  0
  7  9  1  0  0  0  0
  2  9  1  0  0  0  0
 11 13  1  0  0  0  0
 11 10  1  0  0  0  0
 11 12  1  0  0  0  0
  2 12  1  0  0  0  0
  7 10  1  0  0  0  0
  4 13  1  0  0  0  0
 11 14  1  1  0  0  0
 14 15  1  0  0  0  0
 15 16  2  0  0  0  0
 15 17  1  0  0  0  0
 17 18  2  0  0  0  0
 18 19  1  0  0  0  0
 19 20  1  0  0  0  0
 18 21  1  0  0  0  0
 21 22  2  0  0  0  0
 22 23  1  0  0  0  0
 22 24  1  0  0  0  0
 24 25  2  0  0  0  0
 17 25  1  0  0  0  0
M  END
> <ID>
CPD_4735

$$$$
CPD_4740
  Mrv1822 09091914012D          

 30 33  0  0  0  0            999 V2000
    0.0000    2.4750    0.0000 C   0  0  0  0  0  0  0  0  0  0  0  0
    0.7145    2.0625    0.0000 C   0  0  0  0  0  0  0  0  0  0  0  0
    0.7145    1.2375    0.0000 C   0  0  0  0  0  0  0  0  0  0  0  0
    1.4289    0.8250    0.0000 C   0  0  0  0  0  0  0  0  0  0  0  0
    1.4289   -0.0000    0.0000 C   0  0  0  0  0  0  0  0  0  0  0  0
    0.7145   -0.4125    0.0000 C   0  0  0  0  0  0  0  0  0  0  0  0
    0.0000   -0.0000    0.0000 C   0  0  0  0  0  0  0  0  0  0  0  0
    0.0000    0.8250    0.0000 C   0  0  0  0  0  0  0  0  0  0  0  0
    0.7145   -1.2375    0.0000 N   0  0  0  0  0  0  0  0  0  0  0  0
    1.3819   -1.7224    0.0000 N   0  0  0  0  0  0  0  0  0  0  0  0
    1.1270   -2.5070    0.0000 N   0  0  0  0  0  0  0  0  0  0  0  0
    0.3020   -2.5070    0.0000 C   0  0  0  0  0  0  0  0  0  0  0  0
   -0.1830   -3.1745    0.0000 C   0  0  0  0  0  0  0  0  0  0  0  0
    0.1526   -3.9282    0.0000 O   0  0  0  0  0  0  0  0  0  0  0  0
   -1.0034   -3.0882    0.0000 N   0  0  0  0  0  0  0  0  0  0  0  0
   -1.4884   -3.7557    0.0000 C   0  0  0  0  0  0  0  0  0  0  0  0
   -2.0614   -3.1622    0.0000 C   0  0  0  0  0  0  0  0  0  0  0  0
   -0.7469   -4.1173    0.0000 C   0  0  0  0  0  0  0  0  0  0  0  0
   -0.6893   -4.9403    0.0000 C   0  0  0  0  0  0  0  0  0  0  0  0
   -1.3733   -5.4017    0.0000 C   0  0  0  0  0  0  0  0  0  0  0  0
   -2.1148   -5.0400    0.0000 N   0  0  0  0  0  0  0  0  0  0  0  0
   -2.7987   -5.5013    0.0000 C   0  0  0  0  0  0  0  0  0  0  0  0
   -2.1723   -4.2170    0.0000 C   0  0  0  0  0  0  0  0  0  0  0  0
    0.0470   -1.7224    0.0000 C   0  0  0  0  0  0  0  0  0  0  0  0
   -0.7376   -1.4675    0.0000 C   0  0  0  0  0  0  0  0  0  0  0  0
   -1.3507   -2.0195    0.0000 C   0  0  0  0  0  0  0  0  0  0  0  0
   -2.1353   -1.7646    0.0000 N   0  0  0  0  0  0  0  0  0  0  0  0
   -2.3068   -0.9576    0.0000 C   0  0  0  0  0  0  0  0  0  0  0  0
   -1.6937   -0.4056    0.0000 C   0  0  0  0  0  0  0  0  0  0  0  0
   -0.9091   -0.6605    0.0000 C   0  0  0  0  0  0  0  0  0  0  0  0
  1  2  1  0  0  0  0
  2  3  1  0  0  0  0
  3  4  2  0  0  0  0
  4  5  1  0  0  0  0
  5  6  2  0  0  0  0
  6  7  1  0  0  0  0
  7  8  2  0  0  0  0
  3  8  1  0  0  0  0
  6  9  1  0  0  0  0
  9 10  1  0  0  0  0
 10 11  2  0  0  0  0
 11 12  1  0  0  0  0
 12 13  1  0  0  0  0
 13 14  2  0  0  0  0
 13 15  1  0  0  0  0
 15 16  1  0  0  0  0
 16 17  1  0  0  0  0
 16 18  1  0  0  0  0
 18 19  1  0  0  0  0
 19 20  1  0  0  0  0
 20 21  1  0  0  0  0
 21 22  1  0  0  0  0
 21 23  1  0  0  0  0
 16 23  1  0  0  0  0
 12 24  2  0  0  0  0
  9 24  1  0  0  0  0
 24 25  1  0  0  0  0
 25 26  2  0  0  0  0
 26 27  1  0  0  0  0
 27 28  2  0  0  0  0
 28 29  1  0  0  0  0
 29 30  2  0  0  0  0
 25 30  1  0  0  0  0
M  END
> <ID>
CPD_4740

$$$$
CPD_4745
  Mrv1822 09091914012D          

 29 32  0  0  0  0            999 V2000
   -0.1274   -3.5037    0.0000 C   0  0  0  0  0  0  0  0  0  0  0  0
   -0.9027   -3.2215    0.0000 N   0  0  0  0  0  0  0  0  0  0  0  0
   -1.5347   -3.7518    0.0000 C   0  0  0  0  0  0  0  0  0  0  0  0
   -2.3099   -3.4697    0.0000 C   0  0  0  0  0  0  0  0  0  0  0  0
   -2.4532   -2.6572    0.0000 C   0  0  0  0  0  0  0  0  0  0  0  0
   -1.8212   -2.1269    0.0000 C   0  0  0  0  0  0  0  0  0  0  0  0
   -2.4532   -1.5966    0.0000 C   0  0  0  0  0  0  0  0  0  0  0  0
   -1.0460   -2.4091    0.0000 C   0  0  0  0  0  0  0  0  0  0  0  0
   -1.4087   -1.4124    0.0000 N   0  0  0  0  0  0  0  0  0  0  0  0
   -0.5837   -1.4124    0.0000 C   0  0  0  0  0  0  0  0  0  0  0  0
   -0.1712   -2.1269    0.0000 O   0  0  0  0  0  0  0  0  0  0  0  0
   -0.1712   -0.6979    0.0000 C   0  0  0  0  0  0  0  0  0  0  0  0
    0.6538   -0.6979    0.0000 N   0  0  0  0  0  0  0  0  0  0  0  0
    1.1387   -0.0305    0.0000 C   0  0  0  0  0  0  0  0  0  0  0  0
    1.9233   -0.2854    0.0000 C   0  0  0  0  0  0  0  0  0  0  0  0
    2.6378    0.1271    0.0000 C   0  0  0  0  0  0  0  0  0  0  0  0
    3.3523   -0.2854    0.0000 C   0  0  0  0  0  0  0  0  0  0  0  0
    3.3523   -1.1104    0.0000 C   0  0  0  0  0  0  0  0  0  0  0  0
    2.6378   -1.5229    0.0000 N   0  0  0  0  0  0  0  0  0  0  0  0
    1.9233   -1.1104    0.0000 C   0  0  0  0  0  0  0  0  0  0  0  0
    1.1387   -1.3654    0.0000 C   0  0  0  0  0  0  0  0  0  0  0  0
    0.8838   -2.1500    0.0000 O   0  0  0  0  0  0  0  0  0  0  0  0
   -0.5837    0.0165    0.0000 C   0  0  0  0  0  0  0  0  0  0  0  0
   -1.4087    0.0165    0.0000 C   0  0  0  0  0  0  0  0  0  0  0  0
   -1.8212    0.7310    0.0000 C   0  0  0  0  0  0  0  0  0  0  0  0
   -1.4087    1.4455    0.0000 C   0  0  0  0  0  0  0  0  0  0  0  0
   -1.8212    2.1599    0.0000 F   0  0  0  0  0  0  0  0  0  0  0  0
   -0.5837    1.4455    0.0000 C   0  0  0  0  0  0  0  0  0  0  0  0
   -0.1712    0.7310    0.0000 C   0  0  0  0  0  0  0  0  0  0  0  0
  1  2  1  0  0  0  0
  2  3  1  0  0  0  0
  3  4  1  0  0  0  0
  4  5  1  0  0  0  0
  5  6  1  0  0  0  0
  6  7  1  0  0  0  0
  6  8  1  0  0  0  0
  2  8  1  0  0  0  0
  6  9  1  0  0  0  0
  9 10  1  0  0  0  0
 10 11  2  0  0  0  0
 10 12  1  0  0  0  0
 12 13  1  0  0  0  0
 13 14  1  0  0  0  0
 14 15  1  0  0  0  0
 15 16  2  0  0  0  0
 16 17  1  0  0  0  0
 17 18  2  0  0  0  0
 18 19  1  0  0  0  0
 19 20  2  0  0  0  0
 15 20  1  0  0  0  0
 20 21  1  0  0  0  0
 13 21  1  0  0  0  0
 21 22  2  0  0  0  0
 12 23  1  0  0  0  0
 23 24  2  0  0  0  0
 24 25  1  0  0  0  0
 25 26  2  0  0  0  0
 26 27  1  0  0  0  0
 26 28  1  0  0  0  0
 28 29  2  0  0  0  0
 23 29  1  0  0  0  0
M  END
> <ID>
CPD_4745

$$$$
CPD_4750
  Mrv1822 09091914012D          

 28 30  0  0  0  0            999 V2000
    3.3882   -6.4070    0.0000 C   0  0  0  0  0  0  0  0  0  0  0  0
    2.6737   -5.9945    0.0000 N   0  0  0  0  0  0  0  0  0  0  0  0
    1.9592   -6.4070    0.0000 C   0  0  0  0  0  0  0  0  0  0  0  0
    1.2448   -5.9945    0.0000 C   0  0  0  0  0  0  0  0  0  0  0  0
    1.2448   -5.1695    0.0000 C   0  0  0  0  0  0  0  0  0  0  0  0
    1.9592   -4.7570    0.0000 C   0  0  0  0  0  0  0  0  0  0  0  0
    1.4289   -4.1250    0.0000 C   0  0  0  0  0  0  0  0  0  0  0  0
    2.6737   -5.1695    0.0000 C   0  0  0  0  0  0  0  0  0  0  0  0
    2.4895   -4.1250    0.0000 N   0  0  0  0  0  0  0  0  0  0  0  0
    2.2074   -3.3498    0.0000 C   0  0  0  0  0  0  0  0  0  0  0  0
    1.3949   -3.2065    0.0000 O   0  0  0  0  0  0  0  0  0  0  0  0
    2.7377   -2.7178    0.0000 C   0  0  0  0  0  0  0  0  0  0  0  0
    2.4555   -1.9425    0.0000 C   0  0  0  0  0  0  0  0  0  0  0  0
    2.9858   -1.3105    0.0000 C   0  0  0  0  0  0  0  0  0  0  0  0
    3.7983   -1.4538    0.0000 C   0  0  0  0  0  0  0  0  0  0  0  0
    4.0804   -2.2290    0.0000 C   0  0  0  0  0  0  0  0  0  0  0  0
    3.5501   -2.8610    0.0000 C   0  0  0  0  0  0  0  0  0  0  0  0
    4.3286   -0.8218    0.0000 C   0  0  0  0  0  0  0  0  0  0  0  0
    4.0464   -0.0466    0.0000 N   0  0  0  0  0  0  0  0  0  0  0  0
    4.5767    0.5854    0.0000 C   0  0  0  0  0  0  0  0  0  0  0  0
    4.2945    1.3607    0.0000 C   0  0  0  0  0  0  0  0  0  0  0  0
    5.3892    0.4422    0.0000 C   0  0  0  0  0  0  0  0  0  0  0  0
    5.6713   -0.3331    0.0000 C   0  0  0  0  0  0  0  0  0  0  0  0
    5.1410   -0.9651    0.0000 C   0  0  0  0  0  0  0  0  0  0  0  0
    6.4838   -0.4763    0.0000 C   0  0  0  0  0  0  0  0  0  0  0  0
    7.2963   -0.6196    0.0000 F   0  0  0  0  0  0  0  0  0  0  0  0
    6.3405   -1.2888    0.0000 F   0  0  0  0  0  0  0  0  0  0  0  0
    6.6271    0.3361    0.0000 F   0  0  0  0  0  0  0  0  0  0  0  0
  1  2  1  0  0  0  0
  2  3  1  0  0  0  0
  3  4  1  0  0  0  0
  4  5  1  0  0  0  0
  5  6  1  0  0  0  0
  6  7  1  0  0  0  0
  6  8  1  0  0  0  0
  2  8  1  0  0  0  0
  6  9  1  0  0  0  0
  9 10  1  0  0  0  0
 10 11  2  0  0  0  0
 10 12  1  0  0  0  0
 12 13  2  0  0  0  0
 13 14  1  0  0  0  0
 14 15  2  0  0  0  0
 15 16  1  0  0  0  0
 16 17  2  0  0  0  0
 12 17  1  0  0  0  0
 15 18  1  0  0  0  0
 18 19  2  0  0  0  0
 19 20  1  0  0  0  0
 20 21  1  0  0  0  0
 20 22  2  0  0  0  0
 22 23  1  0  0  0  0
 23 24  2  0  0  0  0
 18 24  1  0  0  0  0
 23 25  1  0  0  0  0
 25 26  1  0  0  0  0
 25 27  1  0  0  0  0
 25 28  1  0  0  0  0
M  END
> <ID>
CPD_4750

$$$$
CPD_4755
  Mrv1822 09091914012D          

 28 30  0  0  0  0            999 V2000
    6.3235   -1.2991    0.0000 C   0  0  0  0  0  0  0  0  0  0  0  0
    5.6091   -1.7116    0.0000 C   0  0  0  0  0  0  0  0  0  0  0  0
    4.8946   -1.2991    0.0000 N   0  0  0  0  0  0  0  0  0  0  0  0
    4.8946   -0.4741    0.0000 C   0  0  0  0  0  0  0  0  0  0  0  0
    4.1801   -0.0616    0.0000 C   0  0  0  0  0  0  0  0  0  0  0  0
    4.1801    0.7634    0.0000 C   0  0  0  0  0  0  0  0  0  0  0  0
    4.8946    1.1759    0.0000 C   0  0  0  0  0  0  0  0  0  0  0  0
    4.8946    2.0009    0.0000 O   0  0  0  0  0  0  0  0  0  0  0  0
    5.6091    2.4134    0.0000 C   0  0  0  0  0  0  0  0  0  0  0  0
    5.6091    3.2384    0.0000 C   0  0  0  0  0  0  0  0  0  0  0  0
    6.3235    3.6509    0.0000 C   0  0  0  0  0  0  0  0  0  0  0  0
    7.0380    3.2384    0.0000 C   0  0  0  0  0  0  0  0  0  0  0  0
    7.0380    2.4134    0.0000 C   0  0  0  0  0  0  0  0  0  0  0  0
    6.3235    2.0009    0.0000 C   0  0  0  0  0  0  0  0  0  0  0  0
    5.6091    0.7634    0.0000 C   0  0  0  0  0  0  0  0  0  0  0  0
    5.6091   -0.0616    0.0000 C   0  0  0  0  0  0  0  0  0  0  0  0
    4.1801   -1.7116    0.0000 S   0  0  0  0  0  0  0  0  0  0  0  0
    3.4656   -2.1241    0.0000 C   0  0  0  0  0  0  0  0  0  0  0  0
    3.7676   -0.9971    0.0000 O   0  0  0  0  0  0  0  0  0  0  0  0
    4.5926   -2.4261    0.0000 O   0  0  0  0  0  0  0  0  0  0  0  0
    5.6091   -2.5366    0.0000 C   0  0  0  0  0  0  0  0  0  0  0  0
    6.2765   -3.0215    0.0000 N   0  0  0  0  0  0  0  0  0  0  0  0
    6.0216   -3.8062    0.0000 C   0  0  0  0  0  0  0  0  0  0  0  0
    5.1966   -3.8062    0.0000 N   0  0  0  0  0  0  0  0  0  0  0  0
    4.9416   -3.0215    0.0000 O   0  0  0  0  0  0  0  0  0  0  0  0
    6.5065   -4.4736    0.0000 C   0  0  0  0  0  0  0  0  0  0  0  0
    7.3270   -4.3874    0.0000 N   0  0  0  0  0  0  0  0  0  0  0  0
    6.1709   -5.2273    0.0000 O   0  0  0  0  0  0  0  0  0  0  0  0
  1  2  1  0  0  0  0
  2  3  1  0  0  0  0
  3  4  1  0  0  0  0
  4  5  4  0  0  0  0
  5  6  4  0  0  0  0
  6  7  4  0  0  0  0
  7  8  1  0  0  0  0
  8  9  1  0  0  0  0
  9 10  4  0  0  0  0
 10 11  4  0  0  0  0
 11 12  4  0  0  0  0
 12 13  4  0  0  0  0
 13 14  4  0  0  0  0
  9 14  4  0  0  0  0
  7 15  4  0  0  0  0
 15 16  4  0  0  0  0
  4 16  4  0  0  0  0
  3 17  1  0  0  0  0
 17 18  1  0  0  0  0
 17 19  2  0  0  0  0
 17 20  2  0  0  0  0
  2 21  1  0  0  0  0
 21 22  4  0  0  0  0
 22 23  4  0  0  0  0
 23 24  4  0  0  0  0
 24 25  4  0  0  0  0
 21 25  4  0  0  0  0
 23 26  1  0  0  0  0
 26 27  1  0  0  0  0
 26 28  2  0  0  0  0
M  END
> <ID>
CPD_4755

$$$$
CPD_4760
  Mrv1822 09091914012D          

 26 28  0  0  0  0            999 V2000
    2.1434   -2.8875    0.0000 C   0  0  0  0  0  0  0  0  0  0  0  0
    2.1434   -3.7125    0.0000 C   0  0  0  0  0  0  0  0  0  0  0  0
    2.8579   -4.1250    0.0000 N   0  0  0  0  0  0  0  0  0  0  0  0
    3.5724   -3.7125    0.0000 C   0  0  0  0  0  0  0  0  0  0  0  0
    3.5724   -2.8875    0.0000 O   0  0  0  0  0  0  0  0  0  0  0  0
    4.2868   -4.1250    0.0000 O   0  0  0  0  0  0  0  0  0  0  0  0
    5.0013   -3.7125    0.0000 C   0  0  0  0  0  0  0  0  0  0  0  0
    5.7158   -4.1250    0.0000 C   0  0  0  0  0  0  0  0  0  0  0  0
    6.4302   -3.7125    0.0000 C   0  0  0  0  0  0  0  0  0  0  0  0
    7.1447   -4.1250    0.0000 C   0  0  0  0  0  0  0  0  0  0  0  0
    7.1447   -4.9500    0.0000 C   0  0  0  0  0  0  0  0  0  0  0  0
    6.4302   -5.3625    0.0000 C   0  0  0  0  0  0  0  0  0  0  0  0
    5.7158   -4.9500    0.0000 C   0  0  0  0  0  0  0  0  0  0  0  0
    1.4289   -4.1250    0.0000 C   0  0  0  0  0  0  0  0  0  0  0  0
    1.3427   -4.9455    0.0000 N   0  0  0  0  0  0  0  0  0  0  0  0
    0.5357   -5.1170    0.0000 C   0  0  0  0  0  0  0  0  0  0  0  0
    0.1232   -4.4025    0.0000 C   0  0  0  0  0  0  0  0  0  0  0  0
    0.6753   -3.7894    0.0000 S   0  0  0  0  0  0  0  0  0  0  0  0
   -0.6972   -4.3163    0.0000 C   0  0  0  0  0  0  0  0  0  0  0  0
   -1.2493   -4.9294    0.0000 N   0  0  0  0  0  0  0  0  0  0  0  0
   -2.0030   -4.5938    0.0000 C   0  0  0  0  0  0  0  0  0  0  0  0
   -1.9167   -3.7734    0.0000 N   0  0  0  0  0  0  0  0  0  0  0  0
   -1.1097   -3.6018    0.0000 O   0  0  0  0  0  0  0  0  0  0  0  0
   -2.7174   -5.0063    0.0000 C   0  0  0  0  0  0  0  0  0  0  0  0
   -2.7174   -5.8313    0.0000 N   0  0  0  0  0  0  0  0  0  0  0  0
   -3.4319   -4.5938    0.0000 O   0  0  0  0  0  0  0  0  0  0  0  0
  1  2  1  0  0  0  0
  2  3  1  0  0  0  0
  3  4  1  0  0  0  0
  4  5  2  0  0  0  0
  4  6  1  0  0  0  0
  6  7  1  0  0  0  0
  7  8  1  0  0  0  0
  8  9  4  0  0  0  0
  9 10  4  0  0  0  0
 10 11  4  0  0  0  0
 11 12  4  0  0  0  0
 12 13  4  0  0  0  0
  8 13  4  0  0  0  0
  2 14  1  0  0  0  0
 14 15  4  0  0  0  0
 15 16  4  0  0  0  0
 16 17  4  0  0  0  0
 17 18  4  0  0  0  0
 14 18  4  0  0  0  0
 17 19  1  0  0  0  0
 19 20  4  0  0  0  0
 20 21  4  0  0  0  0
 21 22  4  0  0  0  0
 22 23  4  0  0  0  0
 19 23  4  0  0  0  0
 21 24  1  0  0  0  0
 24 25  1  0  0  0  0
 24 26  2  0  0  0  0
M  END
> <ID>
CPD_4760

$$$$
CPD_4765
  Mrv1822 09091914012D          

 15 15  0  0  0  0            999 V2000
    1.4289    2.4750    0.0000 O   0  0  0  0  0  0  0  0  0  0  0  0
    0.7145    2.0625    0.0000 C   0  0  0  0  0  0  0  0  0  0  0  0
    0.7145    1.2375    0.0000 C   0  0  0  0  0  0  0  0  0  0  0  0
    1.4289    0.8250    0.0000 C   0  0  0  0  0  0  0  0  0  0  0  0
    2.1434    1.2375    0.0000 O   0  0  0  0  0  0  0  0  0  0  0  0
    1.4289   -0.0000    0.0000 C   0  0  0  0  0  0  0  0  0  0  0  0
    2.1434   -0.4125    0.0000 Br  0  0  0  0  0  0  0  0  0  0  0  0
    0.7145   -0.4125    0.0000 C   0  0  0  0  0  0  0  0  0  0  0  0
    0.0000    0.0000    0.0000 C   0  0  0  0  0  0  0  0  0  0  0  0
   -0.7145   -0.4125    0.0000 Cl  0  0  0  0  0  0  0  0  0  0  0  0
    0.0000    0.8250    0.0000 C   0  0  0  0  0  0  0  0  0  0  0  0
   -0.7145    1.2375    0.0000 C   0  0  0  0  0  0  0  0  0  0  0  0
   -1.4289    1.6500    0.0000 F   0  0  0  0  0  0  0  0  0  0  0  0
   -0.3020    1.9520    0.0000 F   0  0  0  0  0  0  0  0  0  0  0  0
   -1.1270    0.5230    0.0000 F   0  0  0  0  0  0  0  0  0  0  0  0
  1  2  1  0  0  0  0
  2  3  1  0  0  0  0
  3  4  2  0  0  0  0
  4  5  1  0  0  0  0
  4  6  1  0  0  0  0
  6  7  1  0  0  0  0
  6  8  2  0  0  0  0
  8  9  1  0  0  0  0
  9 10  1  0  0  0  0
  9 11  2  0  0  0  0
  3 11  1  0  0  0  0
 11 12  1  0  0  0  0
 12 13  1  0  0  0  0
 12 14  1  0  0  0  0
 12 15  1  0  0  0  0
M  END
> <ID>
CPD_4765

$$$$
CPD_4770
  Mrv1822 09091914012D          

 24 27  0  0  0  0            999 V2000
    2.4585   -2.3980    0.0000 C   0  0  0  0  0  0  0  0  0  0  0  0
    2.1602   -1.6288    0.0000 C   0  0  0  0  0  0  0  0  0  0  0  0
    1.3449   -1.5026    0.0000 C   0  0  0  0  0  0  0  0  0  0  0  0
    1.0466   -0.7334    0.0000 C   0  0  0  0  0  0  0  0  0  0  0  0
    0.4662   -0.0464    0.0000 N   0  0  0  0  0  0  0  0  0  0  0  0
    0.7141    0.8503    0.0000 C   0  0  0  0  0  0  0  0  0  0  0  0
    1.4863    1.3911    0.0000 C   0  0  0  0  0  0  0  0  0  0  0  0
    1.4535    2.2154    0.0000 C   0  0  0  0  0  0  0  0  0  0  0  0
    1.4206    3.0398    0.0000 N   0  0  0  0  0  0  0  0  0  0  0  0
    2.2789    0.9252    0.0000 C   0  0  0  0  0  0  0  0  0  0  0  0
    3.1135    0.6346    0.0000 C   0  0  0  0  0  0  0  0  0  0  0  0
    3.3585   -0.1827    0.0000 C   0  0  0  0  0  0  0  0  0  0  0  0
    2.7441   -0.7621    0.0000 C   0  0  0  0  0  0  0  0  0  0  0  0
    1.9001   -0.5566    0.0000 C   0  0  0  0  0  0  0  0  0  0  0  0
    1.9182    0.2376    0.0000 C   0  0  0  0  0  0  0  0  0  0  0  0
    1.2012    0.5445    0.0000 C   0  0  0  0  0  0  0  0  0  0  0  0
    0.3372   -1.1545    0.0000 C   0  0  0  0  0  0  0  0  0  0  0  0
    0.3472   -1.9795    0.0000 C   0  0  0  0  0  0  0  0  0  0  0  0
    1.0666   -2.3833    0.0000 F   0  0  0  0  0  0  0  0  0  0  0  0
   -0.3623   -2.4006    0.0000 C   0  0  0  0  0  0  0  0  0  0  0  0
   -1.0817   -1.9968    0.0000 C   0  0  0  0  0  0  0  0  0  0  0  0
   -1.0917   -1.1718    0.0000 C   0  0  0  0  0  0  0  0  0  0  0  0
   -1.8111   -0.7680    0.0000 Br  0  0  0  0  0  0  0  0  0  0  0  0
   -0.3822   -0.7507    0.0000 C   0  0  0  0  0  0  0  0  0  0  0  0
  1  2  1  0  0  0  0
  2  3  1  0  0  0  0
  3  4  1  0  0  0  0
  4  5  1  0  0  0  0
  5  6  1  0  0  0  0
  6  7  2  0  0  0  0
  7  8  1  0  0  0  0
  8  9  3  0  0  0  0
  7 10  1  0  0  0  0
 10 11  2  0  0  0  0
 11 12  1  0  0  0  0
 12 13  2  0  0  0  0
 13 14  1  0  0  0  0
  4 14  1  0  0  0  0
 14 15  2  0  0  0  0
 10 15  1  0  0  0  0
 15 16  1  0  0  0  0
  6 16  1  0  0  0  0
  4 17  1  0  0  0  0
 17 18  2  0  0  0  0
 18 19  1  0  0  0  0
 18 20  1  0  0  0  0
 20 21  2  0  0  0  0
 21 22  1  0  0  0  0
 22 23  1  0  0  0  0
 22 24  2  0  0  0  0
 17 24  1  0  0  0  0
M  END
> <ID>
CPD_4770

$$$$
CPD_4775
  Mrv1822 09091914012D          

 21 23  0  0  0  0            999 V2000
   -3.8743    6.4895    0.0000 C   0  0  0  0  0  0  0  0  0  0  0  0
   -3.1599    6.9020    0.0000 O   0  0  0  0  0  0  0  0  0  0  0  0
   -2.4454    6.4895    0.0000 C   0  0  0  0  0  0  0  0  0  0  0  0
   -1.7309    6.9020    0.0000 C   0  0  0  0  0  0  0  0  0  0  0  0
   -1.0164    6.4895    0.0000 C   0  0  0  0  0  0  0  0  0  0  0  0
   -1.0164    5.6645    0.0000 C   0  0  0  0  0  0  0  0  0  0  0  0
   -1.7309    5.2520    0.0000 C   0  0  0  0  0  0  0  0  0  0  0  0
   -2.4454    5.6645    0.0000 C   0  0  0  0  0  0  0  0  0  0  0  0
   -3.1599    5.2520    0.0000 O   0  0  0  0  0  0  0  0  0  0  0  0
   -3.8743    5.6645    0.0000 C   0  0  0  0  0  0  0  0  0  0  0  0
   -0.3020    5.2520    0.0000 C   0  0  0  0  0  0  0  0  0  0  0  0
    0.4125    5.6645    0.0000 C   0  0  0  0  0  0  0  0  0  0  0  0
    1.1270    5.2520    0.0000 N   0  0  0  0  0  0  0  0  0  0  0  0
    1.1270    4.4270    0.0000 C   0  0  0  0  0  0  0  0  0  0  0  0
    1.8414    4.0145    0.0000 N   0  0  0  0  0  0  0  0  0  0  0  0
    1.8414    3.1895    0.0000 C   0  0  0  0  0  0  0  0  0  0  0  0
    2.2539    2.4750    0.0000 C   0  0  0  0  0  0  0  0  0  0  0  0
    1.4289    2.4750    0.0000 C   0  0  0  0  0  0  0  0  0  0  0  0
    0.4125    4.0145    0.0000 C   0  0  0  0  0  0  0  0  0  0  0  0
    0.4125    3.1895    0.0000 C   0  0  0  0  0  0  0  0  0  0  0  0
   -0.3020    4.4270    0.0000 N   0  0  0  0  0  0  0  0  0  0  0  0
  1  2  1  0  0  0  0
  2  3  1  0  0  0  0
  3  4  4  0  0  0  0
  4  5  4  0  0  0  0
  5  6  4  0  0  0  0
  6  7  4  0  0  0  0
  7  8  4  0  0  0  0
  3  8  4  0  0  0  0
  8  9  1  0  0  0  0
  9 10  1  0  0  0  0
  6 11  1  0  0  0  0
 11 12  4  0  0  0  0
 12 13  4  0  0  0  0
 13 14  4  0  0  0  0
 14 15  1  0  0  0  0
 15 16  1  0  0  0  0
 16 17  1  0  0  0  0
 17 18  1  0  0  0  0
 16 18  1  0  0  0  0
 14 19  4  0  0  0  0
 19 20  1  0  0  0  0
 19 21  4  0  0  0  0
 11 21  4  0  0  0  0
M  END
> <ID>
CPD_4775

$$$$
CPD_4780
  Mrv1822 09091914012D          

 30 33  0  0  0  0            999 V2000
   -3.0361   -0.8188    0.0000 C   0  0  0  0  0  0  0  0  0  0  0  0
   -2.8226   -0.0219    0.0000 N   0  0  0  0  0  0  0  0  0  0  0  0
   -2.0257    0.1916    0.0000 C   0  0  0  0  0  0  0  0  0  0  0  0
   -1.8122    0.9885    0.0000 N   0  0  0  0  0  0  0  0  0  0  0  0
   -1.0153    1.2020    0.0000 C   0  0  0  0  0  0  0  0  0  0  0  0
   -0.4319    0.6187    0.0000 C   0  0  0  0  0  0  0  0  0  0  0  0
    0.3649    0.8322    0.0000 N   0  0  0  0  0  0  0  0  0  0  0  0
    0.9483    0.2488    0.0000 C   0  0  0  0  0  0  0  0  0  0  0  0
    1.7733    0.2488    0.0000 C   0  0  0  0  0  0  0  0  0  0  0  0
    2.5579    0.5038    0.0000 S   0  0  0  0  0  0  0  0  0  0  0  0
    3.0428   -0.1637    0.0000 C   0  0  0  0  0  0  0  0  0  0  0  0
    3.6559    0.3884    0.0000 C   0  0  0  0  0  0  0  0  0  0  0  0
    3.6559   -0.7157    0.0000 C   0  0  0  0  0  0  0  0  0  0  0  0
    2.5579   -0.8311    0.0000 C   0  0  0  0  0  0  0  0  0  0  0  0
    1.7733   -0.5762    0.0000 N   0  0  0  0  0  0  0  0  0  0  0  0
    0.9483   -0.5762    0.0000 C   0  0  0  0  0  0  0  0  0  0  0  0
    0.3649   -1.1595    0.0000 O   0  0  0  0  0  0  0  0  0  0  0  0
    2.8129   -1.6157    0.0000 C   0  0  0  0  0  0  0  0  0  0  0  0
    3.6198   -1.7873    0.0000 O   0  0  0  0  0  0  0  0  0  0  0  0
    2.2608   -2.2288    0.0000 O   0  0  0  0  0  0  0  0  0  0  0  0
   -0.6455   -0.1782    0.0000 N   0  0  0  0  0  0  0  0  0  0  0  0
   -1.4424   -0.3918    0.0000 C   0  0  0  0  0  0  0  0  0  0  0  0
   -1.6559   -1.1886    0.0000 C   0  0  0  0  0  0  0  0  0  0  0  0
   -0.8018    1.9989    0.0000 C   0  0  0  0  0  0  0  0  0  0  0  0
   -1.3851    2.5823    0.0000 C   0  0  0  0  0  0  0  0  0  0  0  0
   -1.1716    3.3792    0.0000 C   0  0  0  0  0  0  0  0  0  0  0  0
   -0.3747    3.5927    0.0000 C   0  0  0  0  0  0  0  0  0  0  0  0
   -0.1612    4.3896    0.0000 O   0  0  0  0  0  0  0  0  0  0  0  0
    0.2086    3.0093    0.0000 C   0  0  0  0  0  0  0  0  0  0  0  0
   -0.0049    2.2124    0.0000 C   0  0  0  0  0  0  0  0  0  0  0  0
  1  2  1  0  0  0  0
  2  3  1  0  0  0  0
  3  4  4  0  0  0  0
  4  5  4  0  0  0  0
  5  6  4  0  0  0  0
  6  7  1  0  0  0  0
  7  8  1  0  0  0  0
  8  9  1  0  0  0  0
  9 10  1  0  0  0  0
 10 11  1  0  0  0  0
 11 12  1  0  0  0  0
 11 13  1  0  0  0  0
 11 14  1  0  0  0  0
 14 15  1  0  0  0  0
  9 15  1  0  0  0  0
 15 16  1  0  0  0  0
  8 16  1  0  0  0  0
 16 17  2  0  0  0  0
 14 18  1  0  0  0  0
 18 19  1  0  0  0  0
 18 20  2  0  0  0  0
  6 21  4  0  0  0  0
 21 22  4  0  0  0  0
  3 22  4  0  0  0  0
 22 23  1  0  0  0  0
  5 24  1  0  0  0  0
 24 25  4  0  0  0  0
 25 26  4  0  0  0  0
 26 27  4  0  0  0  0
 27 28  1  0  0  0  0
 27 29  4  0  0  0  0
 29 30  4  0  0  0  0
 24 30  4  0  0  0  0
M  END
> <ID>
CPD_4780

$$$$
CPD_4785
  Mrv1822 09091914012D          

 28 30  0  0  0  0            999 V2000
    0.0000    0.8250    0.0000 C   0  0  0  0  0  0  0  0  0  0  0  0
    0.0000   -0.0000    0.0000 C   0  0  0  0  0  0  0  0  0  0  0  0
    0.7145   -0.4125    0.0000 O   0  0  0  0  0  0  0  0  0  0  0  0
    0.7145   -1.2375    0.0000 C   0  0  0  0  0  0  0  0  0  0  0  0
    1.3819   -1.7224    0.0000 N   0  0  0  0  0  0  0  0  0  0  0  0
    1.1270   -2.5070    0.0000 N   0  0  0  0  0  0  0  0  0  0  0  0
    1.6119   -3.1745    0.0000 C   0  0  0  0  0  0  0  0  0  0  0  0
    2.4324   -3.0882    0.0000 C   0  0  0  0  0  0  0  0  0  0  0  0
    2.7679   -2.3346    0.0000 C   0  0  0  0  0  0  0  0  0  0  0  0
    2.2830   -1.6671    0.0000 F   0  0  0  0  0  0  0  0  0  0  0  0
    3.5884   -2.2483    0.0000 C   0  0  0  0  0  0  0  0  0  0  0  0
    4.0733   -2.9158    0.0000 C   0  0  0  0  0  0  0  0  0  0  0  0
    3.7378   -3.6695    0.0000 C   0  0  0  0  0  0  0  0  0  0  0  0
    2.9173   -3.7557    0.0000 C   0  0  0  0  0  0  0  0  0  0  0  0
    2.5817   -4.5094    0.0000 Cl  0  0  0  0  0  0  0  0  0  0  0  0
    0.3020   -2.5070    0.0000 C   0  0  0  0  0  0  0  0  0  0  0  0
   -0.1830   -3.1745    0.0000 O   0  0  0  0  0  0  0  0  0  0  0  0
    0.1526   -3.9282    0.0000 C   0  0  0  0  0  0  0  0  0  0  0  0
   -0.3323   -4.5956    0.0000 C   0  0  0  0  0  0  0  0  0  0  0  0
    0.0470   -1.7224    0.0000 C   0  0  0  0  0  0  0  0  0  0  0  0
   -0.7376   -1.4675    0.0000 C   0  0  0  0  0  0  0  0  0  0  0  0
   -1.3507   -2.0195    0.0000 C   0  0  0  0  0  0  0  0  0  0  0  0
   -2.1353   -1.7646    0.0000 C   0  0  0  0  0  0  0  0  0  0  0  0
   -2.3068   -0.9576    0.0000 C   0  0  0  0  0  0  0  0  0  0  0  0
   -3.0915   -0.7027    0.0000 O   0  0  0  0  0  0  0  0  0  0  0  0
   -3.7045   -1.2547    0.0000 C   0  0  0  0  0  0  0  0  0  0  0  0
   -1.6937   -0.4056    0.0000 N   0  0  0  0  0  0  0  0  0  0  0  0
   -0.9091   -0.6605    0.0000 C   0  0  0  0  0  0  0  0  0  0  0  0
  1  2  1  0  0  0  0
  2  3  1  0  0  0  0
  3  4  1  0  0  0  0
  4  5  2  0  0  0  0
  5  6  1  0  0  0  0
  6  7  1  0  0  0  0
  7  8  1  0  0  0  0
  8  9  2  0  0  0  0
  9 10  1  0  0  0  0
  9 11  1  0  0  0  0
 11 12  2  0  0  0  0
 12 13  1  0  0  0  0
 13 14  2  0  0  0  0
  8 14  1  0  0  0  0
 14 15  1  0  0  0  0
  6 16  1  0  0  0  0
 16 17  1  0  0  0  0
 17 18  1  0  0  0  0
 18 19  1  0  0  0  0
 16 20  2  0  0  0  0
  4 20  1  0  0  0  0
 20 21  1  0  0  0  0
 21 22  2  0  0  0  0
 22 23  1  0  0  0  0
 23 24  2  0  0  0  0
 24 25  1  0  0  0  0
 25 26  1  0  0  0  0
 24 27  1  0  0  0  0
 27 28  2  0  0  0  0
 21 28  1  0  0  0  0
M  END
> <ID>
CPD_4785

$$$$
CPD_4790
  Mrv1822 09091914012D          

 31 33  0  0  0  0            999 V2000
   -3.6611   -1.3426    0.0000 C   0  0  0  0  0  0  0  0  0  0  0  0
   -3.3256   -2.0962    0.0000 C   0  0  0  0  0  0  0  0  0  0  0  0
   -2.5051   -2.1825    0.0000 O   0  0  0  0  0  0  0  0  0  0  0  0
   -2.1695   -2.9362    0.0000 C   0  0  0  0  0  0  0  0  0  0  0  0
   -1.3626   -3.1077    0.0000 N   0  0  0  0  0  0  0  0  0  0  0  0
   -1.2763   -3.9282    0.0000 N   0  0  0  0  0  0  0  0  0  0  0  0
   -0.5619   -4.3407    0.0000 C   0  0  0  0  0  0  0  0  0  0  0  0
   -0.5619   -5.1657    0.0000 O   0  0  0  0  0  0  0  0  0  0  0  0
    0.1526   -3.9282    0.0000 C   0  0  0  0  0  0  0  0  0  0  0  0
    0.8671   -4.3407    0.0000 C   0  0  0  0  0  0  0  0  0  0  0  0
    1.5815   -3.9282    0.0000 C   0  0  0  0  0  0  0  0  0  0  0  0
    2.2960   -4.3407    0.0000 N   0  0  0  0  0  0  0  0  0  0  0  0
    3.0497   -4.0051    0.0000 C   0  0  0  0  0  0  0  0  0  0  0  0
    3.2212   -3.1981    0.0000 O   0  0  0  0  0  0  0  0  0  0  0  0
    3.6017   -4.6182    0.0000 C   0  0  0  0  0  0  0  0  0  0  0  0
    3.1892   -5.3327    0.0000 C   0  0  0  0  0  0  0  0  0  0  0  0
    2.3823   -5.1611    0.0000 C   0  0  0  0  0  0  0  0  0  0  0  0
    1.7692   -5.7132    0.0000 O   0  0  0  0  0  0  0  0  0  0  0  0
   -2.0300   -4.2637    0.0000 C   0  0  0  0  0  0  0  0  0  0  0  0
   -2.2015   -5.0707    0.0000 O   0  0  0  0  0  0  0  0  0  0  0  0
   -1.5884   -5.6227    0.0000 C   0  0  0  0  0  0  0  0  0  0  0  0
   -1.7600   -6.4297    0.0000 C   0  0  0  0  0  0  0  0  0  0  0  0
   -2.5820   -3.6506    0.0000 C   0  0  0  0  0  0  0  0  0  0  0  0
   -3.4025   -3.7369    0.0000 C   0  0  0  0  0  0  0  0  0  0  0  0
   -3.7381   -4.4905    0.0000 C   0  0  0  0  0  0  0  0  0  0  0  0
   -4.5586   -4.5768    0.0000 C   0  0  0  0  0  0  0  0  0  0  0  0
   -5.0435   -3.9093    0.0000 C   0  0  0  0  0  0  0  0  0  0  0  0
   -5.8640   -3.9956    0.0000 O   0  0  0  0  0  0  0  0  0  0  0  0
   -6.1995   -4.7492    0.0000 C   0  0  0  0  0  0  0  0  0  0  0  0
   -4.7079   -3.1557    0.0000 N   0  0  0  0  0  0  0  0  0  0  0  0
   -3.8874   -3.0694    0.0000 C   0  0  0  0  0  0  0  0  0  0  0  0
  1  2  1  0  0  0  0
  2  3  1  0  0  0  0
  3  4  1  0  0  0  0
  4  5  2  0  0  0  0
  5  6  1  0  0  0  0
  6  7  1  0  0  0  0
  7  8  2  0  0  0  0
  7  9  1  0  0  0  0
  9 10  1  0  0  0  0
 10 11  1  0  0  0  0
 11 12  1  0  0  0  0
 12 13  1  0  0  0  0
 13 14  2  0  0  0  0
 13 15  1  0  0  0  0
 15 16  2  0  0  0  0
 16 17  1  0  0  0  0
 12 17  1  0  0  0  0
 17 18  2  0  0  0  0
  6 19  1  0  0  0  0
 19 20  1  0  0  0  0
 20 21  1  0  0  0  0
 21 22  1  0  0  0  0
 19 23  2  0  0  0  0
  4 23  1  0  0  0  0
 23 24  1  0  0  0  0
 24 25  2  0  0  0  0
 25 26  1  0  0  0  0
 26 27  2  0  0  0  0
 27 28  1  0  0  0  0
 28 29  1  0  0  0  0
 27 30  1  0  0  0  0
 30 31  2  0  0  0  0
 24 31  1  0  0  0  0
M  END
> <ID>
CPD_4790

$$$$
CPD_4795
  Mrv1822 09091914012D          

 21 22  0  0  0  0            999 V2000
    1.9520   -1.9520    0.0000 H   0  0  0  0  0  0  0  0  0  0  0  0
    1.5395   -1.2375    0.0000 O   0  0  0  0  0  0  0  0  0  0  0  0
    0.7145   -1.2375    0.0000 C   0  0  0  0  0  0  0  0  0  0  0  0
   -0.1105   -1.2375    0.0000 C   0  0  0  0  0  0  0  0  0  0  0  0
    0.7145   -2.0625    0.0000 C   0  0  0  0  0  0  0  0  0  0  0  0
    1.4289   -2.4750    0.0000 C   0  0  0  0  0  0  0  0  0  0  0  0
    1.4289   -3.3000    0.0000 C   0  0  0  0  0  0  0  0  0  0  0  0
    0.7145   -3.7125    0.0000 C   0  0  0  0  0  0  0  0  0  0  0  0
    0.0000   -3.3000    0.0000 C   0  0  0  0  0  0  0  0  0  0  0  0
    0.0000   -2.4750    0.0000 C   0  0  0  0  0  0  0  0  0  0  0  0
   -0.7145   -2.0625    0.0000 O   0  0  0  0  0  0  0  0  0  0  0  0
    0.7145   -0.4125    0.0000 C   0  0  0  0  0  0  0  0  0  0  0  0
    0.0000    0.0000    0.0000 C   0  0  0  0  0  0  0  0  0  0  0  0
    0.0000    0.8250    0.0000 C   0  0  0  0  0  0  0  0  0  0  0  0
   -0.7145    1.2375    0.0000 Br  0  0  0  0  0  0  0  0  0  0  0  0
    0.7145    1.2375    0.0000 C   0  0  0  0  0  0  0  0  0  0  0  0
    0.7145    2.0625    0.0000 O   0  0  0  0  0  0  0  0  0  0  0  0
    0.0000    2.4750    0.0000 C   0  0  0  0  0  0  0  0  0  0  0  0
    1.4289    0.8250    0.0000 N   0  0  0  0  0  0  0  0  0  0  0  0
    1.4289   -0.0000    0.0000 C   0  0  0  0  0  0  0  0  0  0  0  0
    2.1434   -0.4125    0.0000 C   0  0  0  0  0  0  0  0  0  0  0  0
  1  2  1  0  0  0  0
  2  3  1  0  0  0  0
  3  4  1  0  0  0  0
  3  5  1  0  0  0  0
  5  6  1  0  0  0  0
  6  7  1  0  0  0  0
  7  8  1  0  0  0  0
  8  9  1  0  0  0  0
  9 10  1  0  0  0  0
  5 10  1  0  0  0  0
 10 11  2  0  0  0  0
  3 12  1  0  0  0  0
 12 13  4  0  0  0  0
 13 14  4  0  0  0  0
 14 15  1  0  0  0  0
 14 16  4  0  0  0  0
 16 17  1  0  0  0  0
 17 18  1  0  0  0  0
 16 19  4  0  0  0  0
 19 20  4  0  0  0  0
 12 20  4  0  0  0  0
 20 21  1  0  0  0  0
M  END
> <ID>
CPD_4795

$$$$
CPD_4800
  Mrv1822 09091914012D          

 30 32  0  0  0  0            999 V2000
   -5.0006    0.3218    0.0000 H   0  0  0  0  0  0  0  0  0  0  0  0
   -4.1756    0.3218    0.0000 O   0  0  0  0  0  0  0  0  0  0  0  0
   -3.5922    0.9052    0.0000 C   0  0  0  0  0  0  0  0  0  0  0  0
   -3.0089    1.4886    0.0000 C   0  0  0  0  0  0  0  0  0  0  0  0
   -4.1756    1.4886    0.0000 C   0  0  0  0  0  0  0  0  0  0  0  0
   -4.9725    1.2750    0.0000 C   0  0  0  0  0  0  0  0  0  0  0  0
   -5.5558    1.8584    0.0000 C   0  0  0  0  0  0  0  0  0  0  0  0
   -5.3423    2.6553    0.0000 C   0  0  0  0  0  0  0  0  0  0  0  0
   -4.5454    2.8688    0.0000 C   0  0  0  0  0  0  0  0  0  0  0  0
   -4.3319    3.6657    0.0000 Cl  0  0  0  0  0  0  0  0  0  0  0  0
   -3.9621    2.2855    0.0000 C   0  0  0  0  0  0  0  0  0  0  0  0
   -3.1652    2.4990    0.0000 O   0  0  0  0  0  0  0  0  0  0  0  0
   -6.3527    1.6449    0.0000 N   0  0  0  0  0  0  0  0  0  0  0  0
   -6.5663    0.8480    0.0000 C   0  0  0  0  0  0  0  0  0  0  0  0
   -5.9829    0.2646    0.0000 C   0  0  0  0  0  0  0  0  0  0  0  0
   -6.1964   -0.5323    0.0000 C   0  0  0  0  0  0  0  0  0  0  0  0
   -5.6131   -1.1156    0.0000 C   0  0  0  0  0  0  0  0  0  0  0  0
   -6.9933   -0.7458    0.0000 C   0  0  0  0  0  0  0  0  0  0  0  0
   -7.2068   -1.5427    0.0000 O   0  5  0  0  0  0  0  0  0  0  0  0
   -7.5767   -0.1624    0.0000 C   0  0  0  0  0  0  0  0  0  0  0  0
   -7.3632    0.6345    0.0000 C   0  0  0  0  0  0  0  0  0  0  0  0
   -3.0089    0.3218    0.0000 C   0  0  0  0  0  0  0  0  0  0  0  0
   -2.4255   -0.2615    0.0000 C   0  0  0  0  0  0  0  0  0  0  0  0
   -3.0089   -0.8449    0.0000 C   0  0  0  0  0  0  0  0  0  0  0  0
   -3.5922   -0.2615    0.0000 C   0  0  0  0  0  0  0  0  0  0  0  0
   -2.4255    0.9052    0.0000 C   0  0  0  0  0  0  0  0  0  0  0  0
   -1.6286    0.6917    0.0000 O   0  0  0  0  0  0  0  0  0  0  0  0
   -2.6390    1.7021    0.0000 O   0  0  0  0  0  0  0  0  0  0  0  0
   -2.0557    2.2855    0.0000 C   0  0  0  0  0  0  0  0  0  0  0  0
   -2.2692    3.0824    0.0000 C   0  0  0  0  0  0  0  0  0  0  0  0
  1  2  1  0  0  0  0
  2  3  1  0  0  0  0
  3  4  1  0  0  0  0
  3  5  1  0  0  0  0
  5  6  2  0  0  0  0
  6  7  1  0  0  0  0
  7  8  1  0  0  0  0
  8  9  2  0  0  0  0
  9 10  1  0  0  0  0
  9 11  1  0  0  0  0
  5 11  1  0  0  0  0
 11 12  2  0  0  0  0
  7 13  2  0  0  0  0
 13 14  1  0  0  0  0
 14 15  2  0  0  0  0
 15 16  1  0  0  0  0
 16 17  1  0  0  0  0
 16 18  2  0  0  0  0
 18 19  1  0  0  0  0
 18 20  1  0  0  0  0
 20 21  2  0  0  0  0
 14 21  1  0  0  0  0
  3 22  1  0  0  0  0
 22 23  1  0  0  0  0
 23 24  1  0  0  0  0
 24 25  1  0  0  0  0
 22 25  1  0  0  0  0
 22 26  1  0  0  0  0
 26 27  2  0  0  0  0
 26 28  1  0  0  0  0
 28 29  1  0  0  0  0
 29 30  1  0  0  0  0
M  CHG  1  19  -1
M  END
> <ID>
CPD_4800

$$$$
CPD_4805
  Mrv1822 09091914012D          

 21 23  0  0  1  0            999 V2000
   -1.4326    2.3278    0.0000 H   0  0  0  0  0  0  0  0  0  0  0  0
   -0.8298    1.7645    0.0000 O   0  0  0  0  0  0  0  0  0  0  0  0
   -0.1014    2.1518    0.0000 C   0  0  0  0  0  0  0  0  0  0  0  0
    0.1536    1.3672    0.0000 C   0  0  0  0  0  0  0  0  0  0  0  0
   -0.3984    0.7541    0.0000 C   0  0  0  0  0  0  0  0  0  0  0  0
   -1.2054    0.9256    0.0000 O   0  0  0  0  0  0  0  0  0  0  0  0
   -0.1435   -0.0305    0.0000 N   0  0  0  0  0  0  0  0  0  0  0  0
   -0.6284   -0.6979    0.0000 C   0  0  0  0  0  0  0  0  0  0  0  0
   -0.1435   -1.3654    0.0000 C   0  0  0  0  0  0  0  0  0  0  0  0
    0.6411   -1.1104    0.0000 C   0  0  0  0  0  0  0  0  0  0  0  0
    0.6411   -0.2854    0.0000 C   0  0  0  0  0  0  0  0  0  0  0  0
    1.3556    0.1271    0.0000 C   0  0  0  0  0  0  0  0  0  0  0  0
    2.0701   -0.2854    0.0000 C   0  0  0  0  0  0  0  0  0  0  0  0
    2.0701   -1.1104    0.0000 C   0  0  0  0  0  0  0  0  0  0  0  0
    1.3556   -1.5229    0.0000 C   0  0  0  0  0  0  0  0  0  0  0  0
   -0.6093    2.8019    0.0000 C   0  0  0  0  0  0  0  0  0  0  0  0
   -0.3002    3.5669    0.0000 C   0  0  0  0  0  0  0  0  0  0  0  0
    0.5167    3.6817    0.0000 O   0  0  0  0  0  0  0  0  0  0  0  0
    1.0247    3.0316    0.0000 C   0  0  1  0  0  0  0  0  0  0  0  0
    1.8416    3.1464    0.0000 C   0  0  0  0  0  0  0  0  0  0  0  0
    0.7156    2.2667    0.0000 C   0  0  0  0  0  0  0  0  0  0  0  0
  1  2  1  0  0  0  0
  2  3  1  0  0  0  0
  3  4  1  0  0  0  0
  4  5  1  0  0  0  0
  5  6  2  0  0  0  0
  5  7  1  0  0  0  0
  7  8  1  0  0  0  0
  8  9  1  0  0  0  0
  9 10  1  0  0  0  0
 10 11  2  0  0  0  0
  7 11  1  0  0  0  0
 11 12  1  0  0  0  0
 12 13  2  0  0  0  0
 13 14  1  0  0  0  0
 14 15  2  0  0  0  0
 10 15  1  0  0  0  0
  3 16  1  0  0  0  0
 16 17  1  0  0  0  0
 17 18  1  0  0  0  0
 19 18  1  0  0  0  0
 19 20  1  1  0  0  0
 19 21  1  0  0  0  0
  3 21  1  0  0  0  0
M  END
> <ID>
CPD_4805

$$$$
CPD_4810
  Mrv1822 09091914012D          

 30 34  0  0  0  0            999 V2000
    4.3505    1.5824    0.0000 H   0  0  0  0  0  0  0  0  0  0  0  0
    3.5403    1.7380    0.0000 O   0  0  0  0  0  0  0  0  0  0  0  0
    3.0005    1.1142    0.0000 C   0  0  0  0  0  0  0  0  0  0  0  0
    2.4365    1.7162    0.0000 C   0  0  0  0  0  0  0  0  0  0  0  0
    1.8725    2.3183    0.0000 C   0  0  0  0  0  0  0  0  0  0  0  0
    1.3085    2.9204    0.0000 C   0  0  0  0  0  0  0  0  0  0  0  0
    1.9106    3.4844    0.0000 C   0  0  0  0  0  0  0  0  0  0  0  0
    0.7064    2.3564    0.0000 C   0  0  0  0  0  0  0  0  0  0  0  0
    0.1424    2.9585    0.0000 O   0  0  0  0  0  0  0  0  0  0  0  0
    0.7444    3.5225    0.0000 C   0  0  0  0  0  0  0  0  0  0  0  0
    3.6774    0.6425    0.0000 C   0  0  0  0  0  0  0  0  0  0  0  0
    4.4568    0.9128    0.0000 O   0  0  0  0  0  0  0  0  0  0  0  0
    3.4379   -0.1470    0.0000 N   0  0  0  0  0  0  0  0  0  0  0  0
    3.9359   -0.8048    0.0000 C   0  0  0  0  0  0  0  0  0  0  0  0
    4.7545   -0.7024    0.0000 O   0  0  0  0  0  0  0  0  0  0  0  0
    3.6153   -1.5649    0.0000 C   0  0  0  0  0  0  0  0  0  0  0  0
    4.1133   -2.2227    0.0000 C   0  0  0  0  0  0  0  0  0  0  0  0
    3.7926   -2.9828    0.0000 C   0  0  0  0  0  0  0  0  0  0  0  0
    2.9740   -3.0852    0.0000 C   0  0  0  0  0  0  0  0  0  0  0  0
    2.4760   -2.4274    0.0000 C   0  0  0  0  0  0  0  0  0  0  0  0
    2.7967   -1.6673    0.0000 C   0  0  0  0  0  0  0  0  0  0  0  0
    2.6131   -0.1633    0.0000 C   0  0  0  0  0  0  0  0  0  0  0  0
    2.3427    0.6162    0.0000 C   0  0  0  0  0  0  0  0  0  0  0  0
    1.5179    0.5999    0.0000 C   0  0  0  0  0  0  0  0  0  0  0  0
    1.2785   -0.1896    0.0000 C   0  0  0  0  0  0  0  0  0  0  0  0
    0.4750   -0.3770    0.0000 C   0  0  0  0  0  0  0  0  0  0  0  0
   -0.0890    0.2251    0.0000 C   0  0  0  0  0  0  0  0  0  0  0  0
    0.1505    1.0146    0.0000 C   0  0  0  0  0  0  0  0  0  0  0  0
    0.9539    1.2020    0.0000 C   0  0  0  0  0  0  0  0  0  0  0  0
    1.9554   -0.6613    0.0000 S   0  0  0  0  0  0  0  0  0  0  0  0
  1  2  1  0  0  0  0
  2  3  1  0  0  0  0
  3  4  1  0  0  0  0
  4  5  3  0  0  0  0
  5  6  1  0  0  0  0
  6  7  1  0  0  0  0
  6  8  1  0  0  0  0
  8  9  1  0  0  0  0
  9 10  1  0  0  0  0
  6 10  1  0  0  0  0
  3 11  1  0  0  0  0
 11 12  2  0  0  0  0
 11 13  1  0  0  0  0
 13 14  1  0  0  0  0
 14 15  2  0  0  0  0
 14 16  1  0  0  0  0
 16 17  2  0  0  0  0
 17 18  1  0  0  0  0
 18 19  2  0  0  0  0
 19 20  1  0  0  0  0
 20 21  2  0  0  0  0
 16 21  1  0  0  0  0
 13 22  1  0  0  0  0
 22 23  2  0  0  0  0
  3 23  1  0  0  0  0
 23 24  1  0  0  0  0
 24 25  2  0  0  0  0
 25 26  1  0  0  0  0
 26 27  1  0  0  0  0
 27 28  1  0  0  0  0
 28 29  1  0  0  0  0
 24 29  1  0  0  0  0
 25 30  1  0  0  0  0
 22 30  1  0  0  0  0
M  END
> <ID>
CPD_4810

$$$$
CPD_4815
  Mrv1822 09091914012D          

 27 29  0  0  0  0            999 V2000
    5.3329   -1.4289    0.0000 H   0  0  0  0  0  0  0  0  0  0  0  0
    4.9204   -0.7145    0.0000 N   0  0  0  0  0  0  0  0  0  0  0  0
    4.0954   -0.7145    0.0000 C   0  0  0  0  0  0  0  0  0  0  0  0
    3.6829   -1.4289    0.0000 C   0  0  0  0  0  0  0  0  0  0  0  0
    2.8579   -1.4289    0.0000 C   0  0  0  0  0  0  0  0  0  0  0  0
    2.4454   -2.1434    0.0000 C   0  0  0  0  0  0  0  0  0  0  0  0
    1.6204   -2.1434    0.0000 N   0  0  0  0  0  0  0  0  0  0  0  0
    1.2079   -1.4289    0.0000 C   0  0  0  0  0  0  0  0  0  0  0  0
    0.3829   -1.4289    0.0000 O   0  0  0  0  0  0  0  0  0  0  0  0
   -0.0296   -0.7145    0.0000 C   0  0  0  0  0  0  0  0  0  0  0  0
    0.3829    0.0000    0.0000 C   0  0  0  0  0  0  0  0  0  0  0  0
    1.2079    0.0000    0.0000 C   0  0  0  0  0  0  0  0  0  0  0  0
    1.6204   -0.7145    0.0000 C   0  0  0  0  0  0  0  0  0  0  0  0
    2.4454   -0.7145    0.0000 C   0  0  0  0  0  0  0  0  0  0  0  0
    3.6829    0.0000    0.0000 C   0  0  0  0  0  0  0  0  0  0  0  0
    4.0954    0.7145    0.0000 O   0  0  0  0  0  0  0  0  0  0  0  0
    2.8579    0.0000    0.0000 O   0  0  0  0  0  0  0  0  0  0  0  0
    2.4454    0.7145    0.0000 C   0  0  0  0  0  0  0  0  0  0  0  0
    5.3329    0.0000    0.0000 C   0  0  0  0  0  0  0  0  0  0  0  0
    4.9204    0.7145    0.0000 O   0  0  0  0  0  0  0  0  0  0  0  0
    6.1579    0.0000    0.0000 C   0  0  0  0  0  0  0  0  0  0  0  0
    6.5704    0.7145    0.0000 C   0  0  0  0  0  0  0  0  0  0  0  0
    7.3954    0.7145    0.0000 C   0  0  0  0  0  0  0  0  0  0  0  0
    7.8079    0.0000    0.0000 C   0  0  0  0  0  0  0  0  0  0  0  0
    8.6329    0.0000    0.0000 O   0  0  0  0  0  0  0  0  0  0  0  0
    7.3954   -0.7145    0.0000 C   0  0  0  0  0  0  0  0  0  0  0  0
    6.5704   -0.7145    0.0000 C   0  0  0  0  0  0  0  0  0  0  0  0
  1  2  1  0  0  0  0
  2  3  1  0  0  0  0
  3  4  1  0  0  0  0
  4  5  1  0  0  0  0
  5  6  2  0  0  0  0
  6  7  1  0  0  0  0
  7  8  2  0  0  0  0
  8  9  1  0  0  0  0
  9 10  1  0  0  0  0
 10 11  1  0  0  0  0
 11 12  1  0  0  0  0
 12 13  1  0  0  0  0
  8 13  1  0  0  0  0
 13 14  2  0  0  0  0
  5 14  1  0  0  0  0
  3 15  1  0  0  0  0
 15 16  2  0  0  0  0
 15 17  1  0  0  0  0
 17 18  1  0  0  0  0
  2 19  1  0  0  0  0
 19 20  2  0  0  0  0
 19 21  1  0  0  0  0
 21 22  1  0  0  0  0
 22 23  1  0  0  0  0
 23 24  1  0  0  0  0
 24 25  1  0  0  0  0
 24 26  1  0  0  0  0
 26 27  1  0  0  0  0
 21 27  1  0  0  0  0
M  END
> <ID>
CPD_4815

$$$$
CPD_4820
  Mrv1822 09091914012D          

 37 42  0  0  0  0            999 V2000
    3.3278   -1.8726    0.0000 H   0  0  0  0  0  0  0  0  0  0  0  0
    2.8057   -2.5113    0.0000 N   0  0  0  0  0  0  0  0  0  0  0  0
    1.9914   -2.3786    0.0000 C   0  0  0  0  0  0  0  0  0  0  0  0
    1.4693   -3.0173    0.0000 O   0  0  0  0  0  0  0  0  0  0  0  0
    1.6993   -1.6070    0.0000 C   0  0  0  0  0  0  0  0  0  0  0  0
    0.8851   -1.4743    0.0000 C   0  0  0  0  0  0  0  0  0  0  0  0
    0.5929   -0.7027    0.0000 C   0  0  0  0  0  0  0  0  0  0  0  0
    1.1150   -0.0639    0.0000 C   0  0  0  0  0  0  0  0  0  0  0  0
    0.8229    0.7076    0.0000 O   0  0  0  0  0  0  0  0  0  0  0  0
    1.9293   -0.1967    0.0000 C   0  0  0  0  0  0  0  0  0  0  0  0
    2.2214   -0.9683    0.0000 C   0  0  0  0  0  0  0  0  0  0  0  0
    3.0978   -3.2829    0.0000 C   0  0  0  0  0  0  0  0  0  0  0  0
    2.2873   -3.4366    0.0000 C   0  0  0  0  0  0  0  0  0  0  0  0
    2.0151   -4.2154    0.0000 O   0  0  0  0  0  0  0  0  0  0  0  0
    2.5535   -4.8405    0.0000 C   0  0  0  0  0  0  0  0  0  0  0  0
    2.2814   -5.6193    0.0000 C   0  0  0  0  0  0  0  0  0  0  0  0
    3.3641   -4.6868    0.0000 C   0  0  0  0  0  0  0  0  0  0  0  0
    3.9025   -5.3119    0.0000 C   0  0  0  0  0  0  0  0  0  0  0  0
    4.7131   -5.1582    0.0000 N   0  0  0  0  0  0  0  0  0  0  0  0
    5.2515   -5.7833    0.0000 C   0  0  0  0  0  0  0  0  0  0  0  0
    6.0620   -5.6295    0.0000 C   0  0  0  0  0  0  0  0  0  0  0  0
    6.3342   -4.8507    0.0000 C   0  0  0  0  0  0  0  0  0  0  0  0
    5.7957   -4.2256    0.0000 C   0  0  0  0  0  0  0  0  0  0  0  0
    6.2239   -3.5204    0.0000 N   0  0  0  0  0  0  0  0  0  0  0  0
    7.0269   -3.7096    0.0000 C   0  0  0  0  0  0  0  0  0  0  0  0
    7.7048   -3.2395    0.0000 C   0  0  0  0  0  0  0  0  0  0  0  0
    8.4509   -3.5916    0.0000 C   0  0  0  0  0  0  0  0  0  0  0  0
    8.5191   -4.4138    0.0000 C   0  0  0  0  0  0  0  0  0  0  0  0
    7.8411   -4.8839    0.0000 C   0  0  0  0  0  0  0  0  0  0  0  0
    7.0950   -4.5318    0.0000 C   0  0  0  0  0  0  0  0  0  0  0  0
    4.9852   -4.3793    0.0000 C   0  0  0  0  0  0  0  0  0  0  0  0
    4.4468   -3.7542    0.0000 C   0  0  0  0  0  0  0  0  0  0  0  0
    3.6362   -3.9080    0.0000 C   0  0  0  0  0  0  0  0  0  0  0  0
    3.8069   -2.8612    0.0000 C   0  0  0  0  0  0  0  0  0  0  0  0
    3.7963   -2.0363    0.0000 O   0  0  0  0  0  0  0  0  0  0  0  0
    4.5267   -3.2644    0.0000 O   0  0  0  0  0  0  0  0  0  0  0  0
    5.2357   -2.8428    0.0000 C   0  0  0  0  0  0  0  0  0  0  0  0
  1  2  1  0  0  0  0
  2  3  1  0  0  0  0
  3  4  2  0  0  0  0
  3  5  1  0  0  0  0
  5  6  1  0  0  0  0
  6  7  1  0  0  0  0
  7  8  1  0  0  0  0
  8  9  1  0  0  0  0
  8 10  1  0  0  0  0
 10 11  1  0  0  0  0
  5 11  1  0  0  0  0
  2 12  1  0  0  0  0
 12 13  1  0  0  0  0
 13 14  1  0  0  0  0
 14 15  1  0  0  0  0
 15 16  1  0  0  0  0
 15 17  1  0  0  0  0
 17 18  1  0  0  0  0
 18 19  1  0  0  0  0
 19 20  1  0  0  0  0
 20 21  1  0  0  0  0
 21 22  1  0  0  0  0
 22 23  2  0  0  0  0
 23 24  1  0  0  0  0
 24 25  1  0  0  0  0
 25 26  2  0  0  0  0
 26 27  1  0  0  0  0
 27 28  2  0  0  0  0
 28 29  1  0  0  0  0
 29 30  2  0  0  0  0
 22 30  1  0  0  0  0
 25 30  1  0  0  0  0
 23 31  1  0  0  0  0
 19 31  1  0  0  0  0
 31 32  1  0  0  0  0
 32 33  1  0  0  0  0
 12 33  1  0  0  0  0
 17 33  1  0  0  0  0
 12 34  1  0  0  0  0
 34 35  2  0  0  0  0
 34 36  1  0  0  0  0
 36 37  1  0  0  0  0
M  END
> <ID>
CPD_4820

$$$$
CPD_4825
  Mrv1822 09091914012D          

 25 26  0  0  0  0            999 V2000
    3.1895   -5.1414    0.0000 H   0  0  0  0  0  0  0  0  0  0  0  0
    2.7770   -4.4270    0.0000 N   0  0  0  0  0  0  0  0  0  0  0  0
    1.9520   -4.4270    0.0000 C   0  0  0  0  0  0  0  0  0  0  0  0
    1.5395   -3.7125    0.0000 C   0  0  0  0  0  0  0  0  0  0  0  0
    0.7145   -3.7125    0.0000 C   0  0  0  0  0  0  0  0  0  0  0  0
    0.3020   -2.9980    0.0000 O   0  0  0  0  0  0  0  0  0  0  0  0
    0.3020   -4.4270    0.0000 O   0  0  0  0  0  0  0  0  0  0  0  0
    1.5395   -5.1414    0.0000 C   0  0  0  0  0  0  0  0  0  0  0  0
    1.9520   -5.8559    0.0000 C   0  0  0  0  0  0  0  0  0  0  0  0
    2.7770   -5.8559    0.0000 Cl  0  0  0  0  0  0  0  0  0  0  0  0
    1.5395   -6.5704    0.0000 C   0  0  0  0  0  0  0  0  0  0  0  0
    1.9520   -7.2849    0.0000 F   0  0  0  0  0  0  0  0  0  0  0  0
    0.7145   -6.5704    0.0000 C   0  0  0  0  0  0  0  0  0  0  0  0
    0.3020   -5.8559    0.0000 C   0  0  0  0  0  0  0  0  0  0  0  0
    0.7145   -5.1414    0.0000 C   0  0  0  0  0  0  0  0  0  0  0  0
   -0.0392   -4.8059    0.0000 F   0  0  0  0  0  0  0  0  0  0  0  0
    3.1895   -3.7125    0.0000 C   0  0  0  0  0  0  0  0  0  0  0  0
    2.7770   -2.9980    0.0000 O   0  0  0  0  0  0  0  0  0  0  0  0
    4.0145   -3.7125    0.0000 C   0  0  0  0  0  0  0  0  0  0  0  0
    4.4270   -2.9980    0.0000 C   0  0  0  0  0  0  0  0  0  0  0  0
    5.2520   -2.9980    0.0000 C   0  0  0  0  0  0  0  0  0  0  0  0
    5.6645   -3.7125    0.0000 C   0  0  0  0  0  0  0  0  0  0  0  0
    6.4895   -3.7125    0.0000 O   0  0  0  0  0  0  0  0  0  0  0  0
    5.2520   -4.4270    0.0000 C   0  0  0  0  0  0  0  0  0  0  0  0
    4.4270   -4.4270    0.0000 C   0  0  0  0  0  0  0  0  0  0  0  0
  1  2  1  0  0  0  0
  2  3  1  0  0  0  0
  3  4  1  0  0  0  0
  4  5  1  0  0  0  0
  5  6  1  0  0  0  0
  5  7  2  0  0  0  0
  3  8  1  0  0  0  0
  8  9  2  0  0  0  0
  9 10  1  0  0  0  0
  9 11  1  0  0  0  0
 11 12  1  0  0  0  0
 11 13  2  0  0  0  0
 13 14  1  0  0  0  0
 14 15  2  0  0  0  0
  8 15  1  0  0  0  0
 15 16  1  0  0  0  0
  2 17  1  0  0  0  0
 17 18  2  0  0  0  0
 17 19  1  0  0  0  0
 19 20  1  0  0  0  0
 20 21  1  0  0  0  0
 21 22  1  0  0  0  0
 22 23  1  0  0  0  0
 22 24  1  0  0  0  0
 24 25  1  0  0  0  0
 19 25  1  0  0  0  0
M  END
> <ID>
CPD_4825

$$$$
CPD_4830
  Mrv1822 09091914012D          

 32 36  0  0  1  0            999 V2000
    2.5615   -2.7373    0.0000 H   0  0  0  0  0  0  0  0  0  0  0  0
    2.0297   -3.3680    0.0000 C   0  0  2  0  0  0  0  0  0  0  0  0
    1.3784   -3.8744    0.0000 C   0  0  0  0  0  0  0  0  0  0  0  0
    0.6955   -3.4114    0.0000 C   0  0  0  0  0  0  0  0  0  0  0  0
    0.9249   -2.6189    0.0000 C   0  0  1  0  0  0  0  0  0  0  0  0
    0.9844   -1.7960    0.0000 O   0  0  0  0  0  0  0  0  0  0  0  0
    0.1127   -2.4737    0.0000 C   0  0  0  0  0  0  0  0  0  0  0  0
   -0.6994   -2.3285    0.0000 C   0  0  0  0  0  0  0  0  0  0  0  0
   -1.5115   -2.1832    0.0000 C   0  0  0  0  0  0  0  0  0  0  0  0
   -2.1063   -2.7549    0.0000 C   0  0  0  0  0  0  0  0  0  0  0  0
   -2.8338   -2.3658    0.0000 C   0  0  0  0  0  0  0  0  0  0  0  0
   -3.5762   -2.7257    0.0000 C   0  0  0  0  0  0  0  0  0  0  0  0
   -4.2591   -2.2627    0.0000 O   0  0  0  0  0  0  0  0  0  0  0  0
   -2.6886   -1.5537    0.0000 C   0  0  0  0  0  0  0  0  0  0  0  0
   -1.8714   -1.4409    0.0000 S   0  0  0  0  0  0  0  0  0  0  0  0
    1.7494   -2.5921    0.0000 C   0  0  2  0  0  0  0  0  0  0  0  0
    1.3895   -1.8497    0.0000 C   0  0  0  0  0  0  0  0  0  0  0  0
    1.8525   -1.1669    0.0000 C   0  0  0  0  0  0  0  0  0  0  0  0
    2.2812   -1.9614    0.0000 C   0  0  0  0  0  0  0  0  0  0  0  0
    3.0934   -2.1066    0.0000 C   0  0  0  0  0  0  0  0  0  0  0  0
    3.3737   -2.8825    0.0000 C   0  0  0  0  0  0  0  0  0  0  0  0
    4.1858   -3.0277    0.0000 C   0  0  0  0  0  0  0  0  0  0  0  0
    4.7176   -2.3970    0.0000 C   0  0  0  0  0  0  0  0  0  0  0  0
    5.5297   -2.5422    0.0000 C   0  0  0  0  0  0  0  0  0  0  0  0
    5.8100   -3.3182    0.0000 C   0  0  0  0  0  0  0  0  0  0  0  0
    6.6221   -3.4634    0.0000 O   0  0  0  0  0  0  0  0  0  0  0  0
    5.2782   -3.9489    0.0000 C   0  0  0  0  0  0  0  0  0  0  0  0
    4.4661   -3.8037    0.0000 C   0  0  0  0  0  0  0  0  0  0  0  0
    3.9343   -4.4344    0.0000 C   0  0  0  0  0  0  0  0  0  0  0  0
    3.1221   -4.2891    0.0000 C   0  0  0  0  0  0  0  0  0  0  0  0
    2.8418   -3.5132    0.0000 C   0  0  1  0  0  0  0  0  0  0  0  0
    2.3100   -4.1439    0.0000 H   0  0  0  0  0  0  0  0  0  0  0  0
  2  1  1  1  0  0  0
  2  3  1  0  0  0  0
  3  4  1  0  0  0  0
  5  4  1  0  0  0  0
  5  6  1  6  0  0  0
  5  7  1  1  0  0  0
  7  8  3  0  0  0  0
  8  9  1  0  0  0  0
  9 10  2  0  0  0  0
 10 11  1  0  0  0  0
 11 12  1  0  0  0  0
 12 13  1  0  0  0  0
 11 14  2  0  0  0  0
 14 15  1  0  0  0  0
  9 15  1  0  0  0  0
 16  5  1  0  0  0  0
  2 16  1  0  0  0  0
 16 17  1  6  0  0  0
 17 18  1  0  0  0  0
 16 19  1  0  0  0  0
 19 20  2  0  0  0  0
 20 21  1  0  0  0  0
 21 22  2  0  0  0  0
 22 23  1  0  0  0  0
 23 24  1  0  0  0  0
 24 25  1  0  0  0  0
 25 26  2  0  0  0  0
 25 27  1  0  0  0  0
 27 28  2  0  0  0  0
 22 28  1  0  0  0  0
 28 29  1  0  0  0  0
 29 30  1  0  0  0  0
 31 30  1  0  0  0  0
  2 31  1  0  0  0  0
 31 21  1  0  0  0  0
 31 32  1  6  0  0  0
M  END
> <ID>
CPD_4830

$$$$
CPD_4835
  Mrv1822 09091914012D          

 18 19  0  0  0  0            999 V2000
    0.7145   -2.0625    0.0000 F   0  0  0  0  0  0  0  0  0  0  0  0
    0.7145   -2.8875    0.0000 C   0  0  0  0  0  0  0  0  0  0  0  0
    1.4289   -3.3000    0.0000 C   0  0  0  0  0  0  0  0  0  0  0  0
    2.1434   -2.8875    0.0000 F   0  0  0  0  0  0  0  0  0  0  0  0
    1.4289   -4.1250    0.0000 C   0  0  0  0  0  0  0  0  0  0  0  0
    0.7145   -4.5375    0.0000 C   0  0  0  0  0  0  0  0  0  0  0  0
    0.0000   -4.1250    0.0000 C   0  0  0  0  0  0  0  0  0  0  0  0
    0.0000   -3.3000    0.0000 C   0  0  0  0  0  0  0  0  0  0  0  0
    0.7145   -5.3625    0.0000 C   0  0  0  0  0  0  0  0  0  0  0  0
    0.7145   -6.1875    0.0000 C   0  0  0  0  0  0  0  0  0  0  0  0
    0.7145   -7.0125    0.0000 C   0  0  0  0  0  0  0  0  0  0  0  0
    1.4289   -7.4250    0.0000 C   0  0  0  0  0  0  0  0  0  0  0  0
    2.1434   -7.0125    0.0000 Cl  0  0  0  0  0  0  0  0  0  0  0  0
    1.4289   -8.2500    0.0000 C   0  0  0  0  0  0  0  0  0  0  0  0
    2.1434   -8.6625    0.0000 Cl  0  0  0  0  0  0  0  0  0  0  0  0
    0.7145   -8.6625    0.0000 C   0  0  0  0  0  0  0  0  0  0  0  0
   -0.0000   -8.2500    0.0000 N   0  0  0  0  0  0  0  0  0  0  0  0
   -0.0000   -7.4250    0.0000 C   0  0  0  0  0  0  0  0  0  0  0  0
  1  2  1  0  0  0  0
  2  3  2  0  0  0  0
  3  4  1  0  0  0  0
  3  5  1  0  0  0  0
  5  6  2  0  0  0  0
  6  7  1  0  0  0  0
  7  8  2  0  0  0  0
  2  8  1  0  0  0  0
  6  9  1  0  0  0  0
  9 10  3  0  0  0  0
 10 11  1  0  0  0  0
 11 12  2  0  0  0  0
 12 13  1  0  0  0  0
 12 14  1  0  0  0  0
 14 15  1  0  0  0  0
 14 16  2  0  0  0  0
 16 17  1  0  0  0  0
 17 18  2  0  0  0  0
 11 18  1  0  0  0  0
M  END
> <ID>
CPD_4835

$$$$
CPD_4840
  Mrv1822 09091914012D          

 28 29  0  0  0  0            999 V2000
    1.4289   -0.0000    0.0000 C   0  0  0  0  0  0  0  0  0  0  0  0
    0.7145   -0.4125    0.0000 O   0  0  0  0  0  0  0  0  0  0  0  0
    0.7145   -1.2375    0.0000 C   0  0  0  0  0  0  0  0  0  0  0  0
    1.4289   -1.6500    0.0000 C   0  0  0  0  0  0  0  0  0  0  0  0
    1.4289   -2.4750    0.0000 C   0  0  0  0  0  0  0  0  0  0  0  0
    2.1434   -2.8875    0.0000 C   0  0  0  0  0  0  0  0  0  0  0  0
    0.7145   -2.8875    0.0000 C   0  0  0  0  0  0  0  0  0  0  0  0
    0.0000   -2.4750    0.0000 C   0  0  0  0  0  0  0  0  0  0  0  0
    0.0000   -1.6500    0.0000 C   0  0  0  0  0  0  0  0  0  0  0  0
   -0.7145   -1.2375    0.0000 F   0  0  0  0  0  0  0  0  0  0  0  0
   -0.7145   -2.8875    0.0000 C   0  0  0  0  0  0  0  0  0  0  0  0
   -0.7145   -3.7125    0.0000 C   0  0  0  0  0  0  0  0  0  0  0  0
   -1.4289   -4.1250    0.0000 C   0  0  0  0  0  0  0  0  0  0  0  0
   -2.1434   -3.7125    0.0000 C   0  0  0  0  0  0  0  0  0  0  0  0
   -2.8579   -4.1250    0.0000 Cl  0  0  0  0  0  0  0  0  0  0  0  0
   -2.1434   -2.8875    0.0000 C   0  0  0  0  0  0  0  0  0  0  0  0
   -1.4289   -2.4750    0.0000 C   0  0  0  0  0  0  0  0  0  0  0  0
   -2.8579   -2.4750    0.0000 N   0  0  0  0  0  0  0  0  0  0  0  0
   -3.5724   -2.8875    0.0000 C   0  0  0  0  0  0  0  0  0  0  0  0
   -4.2868   -2.4750    0.0000 C   0  0  0  0  0  0  0  0  0  0  0  0
   -5.0013   -2.8875    0.0000 C   0  0  0  0  0  0  0  0  0  0  0  0
   -5.7158   -2.4750    0.0000 C   0  0  0  0  0  0  0  0  0  0  0  0
   -6.4302   -2.8875    0.0000 O   0  0  0  0  0  0  0  0  0  0  0  0
   -5.7158   -1.6500    0.0000 O   0  0  0  0  0  0  0  0  0  0  0  0
   -2.8579   -1.6500    0.0000 S   0  0  0  0  0  0  0  0  0  0  0  0
   -2.8579   -0.8250    0.0000 C   0  0  0  0  0  0  0  0  0  0  0  0
   -3.6829   -1.6500    0.0000 O   0  0  0  0  0  0  0  0  0  0  0  0
   -2.0329   -1.6500    0.0000 O   0  0  0  0  0  0  0  0  0  0  0  0
  1  2  1  0  0  0  0
  2  3  1  0  0  0  0
  3  4  2  0  0  0  0
  4  5  1  0  0  0  0
  5  6  1  0  0  0  0
  5  7  2  0  0  0  0
  7  8  1  0  0  0  0
  8  9  2  0  0  0  0
  3  9  1  0  0  0  0
  9 10  1  0  0  0  0
  8 11  1  0  0  0  0
 11 12  2  0  0  0  0
 12 13  1  0  0  0  0
 13 14  2  0  0  0  0
 14 15  1  0  0  0  0
 14 16  1  0  0  0  0
 16 17  2  0  0  0  0
 11 17  1  0  0  0  0
 16 18  1  0  0  0  0
 18 19  1  0  0  0  0
 19 20  1  0  0  0  0
 20 21  1  0  0  0  0
 21 22  1  0  0  0  0
 22 23  1  0  0  0  0
 22 24  2  0  0  0  0
 18 25  1  0  0  0  0
 25 26  1  0  0  0  0
 25 27  2  0  0  0  0
 25 28  2  0  0  0  0
M  END
> <ID>
CPD_4840

$$$$
CPD_4845
  Mrv1822 09091914012D          

 25 27  0  0  0  0            999 V2000
    3.4656   -0.4741    0.0000 C   0  0  0  0  0  0  0  0  0  0  0  0
    3.4656   -1.2991    0.0000 O   0  0  0  0  0  0  0  0  0  0  0  0
    2.7512   -1.7116    0.0000 C   0  0  0  0  0  0  0  0  0  0  0  0
    2.0367   -1.2991    0.0000 O   0  0  0  0  0  0  0  0  0  0  0  0
    2.7512   -2.5366    0.0000 C   0  0  0  0  0  0  0  0  0  0  0  0
    3.4186   -3.0215    0.0000 N   0  0  0  0  0  0  0  0  0  0  0  0
    3.1637   -3.8062    0.0000 O   0  0  0  0  0  0  0  0  0  0  0  0
    2.3387   -3.8062    0.0000 C   0  0  0  0  0  0  0  0  0  0  0  0
    2.0837   -3.0215    0.0000 C   0  0  0  0  0  0  0  0  0  0  0  0
    1.8538   -4.4736    0.0000 C   0  0  0  0  0  0  0  0  0  0  0  0
    2.1893   -5.2273    0.0000 C   0  0  0  0  0  0  0  0  0  0  0  0
    1.7044   -5.8947    0.0000 C   0  0  0  0  0  0  0  0  0  0  0  0
    0.8839   -5.8085    0.0000 C   0  0  0  0  0  0  0  0  0  0  0  0
    0.5484   -5.0548    0.0000 C   0  0  0  0  0  0  0  0  0  0  0  0
    1.0333   -4.3874    0.0000 C   0  0  0  0  0  0  0  0  0  0  0  0
   -0.2721   -4.9686    0.0000 C   0  0  0  0  0  0  0  0  0  0  0  0
   -0.7571   -5.6360    0.0000 C   0  0  0  0  0  0  0  0  0  0  0  0
   -0.4215   -6.3897    0.0000 F   0  0  0  0  0  0  0  0  0  0  0  0
   -1.5775   -5.5498    0.0000 C   0  0  0  0  0  0  0  0  0  0  0  0
   -2.0625   -6.2172    0.0000 O   0  0  0  0  0  0  0  0  0  0  0  0
   -1.7269   -6.9709    0.0000 C   0  0  0  0  0  0  0  0  0  0  0  0
   -1.9131   -4.7961    0.0000 C   0  0  0  0  0  0  0  0  0  0  0  0
   -1.4282   -4.1286    0.0000 C   0  0  0  0  0  0  0  0  0  0  0  0
   -1.7637   -3.3750    0.0000 C   0  0  0  0  0  0  0  0  0  0  0  0
   -0.6077   -4.2149    0.0000 C   0  0  0  0  0  0  0  0  0  0  0  0
  1  2  1  0  0  0  0
  2  3  1  0  0  0  0
  3  4  2  0  0  0  0
  3  5  1  0  0  0  0
  5  6  2  0  0  0  0
  6  7  1  0  0  0  0
  7  8  1  0  0  0  0
  8  9  2  0  0  0  0
  5  9  1  0  0  0  0
  8 10  1  0  0  0  0
 10 11  2  0  0  0  0
 11 12  1  0  0  0  0
 12 13  2  0  0  0  0
 13 14  1  0  0  0  0
 14 15  2  0  0  0  0
 10 15  1  0  0  0  0
 14 16  1  0  0  0  0
 16 17  2  0  0  0  0
 17 18  1  0  0  0  0
 17 19  1  0  0  0  0
 19 20  1  0  0  0  0
 20 21  1  0  0  0  0
 19 22  2  0  0  0  0
 22 23  1  0  0  0  0
 23 24  1  0  0  0  0
 23 25  2  0  0  0  0
 16 25  1  0  0  0  0
M  END
> <ID>
CPD_4845

$$$$
CPD_4850
  Mrv1822 09091914012D          

 17 18  0  0  0  0            999 V2000
    4.2868    7.1786    0.0000 C   0  0  0  0  0  0  0  0  0  0  0  0
    3.5724    6.7661    0.0000 O   0  0  0  0  0  0  0  0  0  0  0  0
    3.5724    5.9411    0.0000 C   0  0  0  0  0  0  0  0  0  0  0  0
    4.2868    5.5286    0.0000 C   0  0  0  0  0  0  0  0  0  0  0  0
    4.2868    4.7036    0.0000 C   0  0  0  0  0  0  0  0  0  0  0  0
    5.0013    4.2911    0.0000 C   0  0  0  0  0  0  0  0  0  0  0  0
    3.5724    4.2911    0.0000 C   0  0  0  0  0  0  0  0  0  0  0  0
    2.8579    4.7036    0.0000 C   0  0  0  0  0  0  0  0  0  0  0  0
    2.1434    4.2911    0.0000 C   0  0  0  0  0  0  0  0  0  0  0  0
    2.1434    3.4661    0.0000 C   0  0  0  0  0  0  0  0  0  0  0  0
    2.8109    2.9812    0.0000 C   0  0  0  0  0  0  0  0  0  0  0  0
    2.5559    2.1965    0.0000 N   0  0  0  0  0  0  0  0  0  0  0  0
    1.7309    2.1965    0.0000 C   0  0  0  0  0  0  0  0  0  0  0  0
    1.2460    1.5291    0.0000 N   0  0  0  0  0  0  0  0  0  0  0  0
    1.4760    2.9812    0.0000 S   0  0  0  0  0  0  0  0  0  0  0  0
    2.8579    5.5286    0.0000 C   0  0  0  0  0  0  0  0  0  0  0  0
    2.1434    5.9411    0.0000 F   0  0  0  0  0  0  0  0  0  0  0  0
  1  2  1  0  0  0  0
  2  3  1  0  0  0  0
  3  4  2  0  0  0  0
  4  5  1  0  0  0  0
  5  6  1  0  0  0  0
  5  7  2  0  0  0  0
  7  8  1  0  0  0  0
  8  9  1  0  0  0  0
  9 10  1  0  0  0  0
 10 11  1  0  0  0  0
 11 12  1  0  0  0  0
 12 13  2  0  0  0  0
 13 14  1  0  0  0  0
 13 15  1  0  0  0  0
 10 15  1  0  0  0  0
  8 16  2  0  0  0  0
  3 16  1  0  0  0  0
 16 17  1  0  0  0  0
M  END
> <ID>
CPD_4850

$$$$
CPD_4855
  Mrv1822 09091914012D          

 15 15  0  0  0  0            999 V2000
    0.0000    2.4750    0.0000 C   0  0  0  0  0  0  0  0  0  0  0  0
    0.7145    2.0625    0.0000 O   0  0  0  0  0  0  0  0  0  0  0  0
    0.7145    1.2375    0.0000 C   0  0  0  0  0  0  0  0  0  0  0  0
    1.4289    0.8250    0.0000 C   0  0  0  0  0  0  0  0  0  0  0  0
    1.4289   -0.0000    0.0000 C   0  0  0  0  0  0  0  0  0  0  0  0
    2.1434   -0.4125    0.0000 C   0  0  0  0  0  0  0  0  0  0  0  0
    0.7145   -0.4125    0.0000 C   0  0  0  0  0  0  0  0  0  0  0  0
    0.7145   -1.2375    0.0000 C   0  0  0  0  0  0  0  0  0  0  0  0
    1.4289   -1.6500    0.0000 C   0  0  0  0  0  0  0  0  0  0  0  0
    1.4289   -2.4750    0.0000 C   0  0  0  0  0  0  0  0  0  0  0  0
    2.1434   -2.8875    0.0000 N   0  0  0  0  0  0  0  0  0  0  0  0
    0.7145   -2.8875    0.0000 O   0  0  0  0  0  0  0  0  0  0  0  0
    0.0000    0.0000    0.0000 C   0  0  0  0  0  0  0  0  0  0  0  0
    0.0000    0.8250    0.0000 C   0  0  0  0  0  0  0  0  0  0  0  0
   -0.7145    1.2375    0.0000 Br  0  0  0  0  0  0  0  0  0  0  0  0
  1  2  1  0  0  0  0
  2  3  1  0  0  0  0
  3  4  2  0  0  0  0
  4  5  1  0  0  0  0
  5  6  1  0  0  0  0
  5  7  2  0  0  0  0
  7  8  1  0  0  0  0
  8  9  1  0  0  0  0
  9 10  1  0  0  0  0
 10 11  1  0  0  0  0
 10 12  2  0  0  0  0
  7 13  1  0  0  0  0
 13 14  2  0  0  0  0
  3 14  1  0  0  0  0
 14 15  1  0  0  0  0
M  END
> <ID>
CPD_4855

$$$$
CPD_4860
  Mrv1822 09091914012D          

 31 33  0  0  0  0            999 V2000
    2.1434   -1.2375    0.0000 C   0  0  0  0  0  0  0  0  0  0  0  0
    2.8579   -1.6500    0.0000 C   0  0  0  0  0  0  0  0  0  0  0  0
    2.8579   -2.4750    0.0000 O   0  0  0  0  0  0  0  0  0  0  0  0
    3.5724   -2.8875    0.0000 C   0  0  0  0  0  0  0  0  0  0  0  0
    4.2868   -2.4750    0.0000 O   0  0  0  0  0  0  0  0  0  0  0  0
    3.5724   -3.7125    0.0000 C   0  0  0  0  0  0  0  0  0  0  0  0
    4.2868   -4.1250    0.0000 C   0  0  0  0  0  0  0  0  0  0  0  0
    4.2868   -4.9500    0.0000 N   0  0  0  0  0  0  0  0  0  0  0  0
    3.5724   -5.3625    0.0000 C   0  0  0  0  0  0  0  0  0  0  0  0
    3.5724   -6.1875    0.0000 O   0  0  0  0  0  0  0  0  0  0  0  0
    2.8579   -4.9500    0.0000 C   0  0  0  0  0  0  0  0  0  0  0  0
    2.8579   -4.1250    0.0000 C   0  0  0  0  0  0  0  0  0  0  0  0
    2.1434   -3.7125    0.0000 O   0  0  0  0  0  0  0  0  0  0  0  0
    5.0013   -3.7125    0.0000 C   0  0  0  0  0  0  0  0  0  0  0  0
    5.0013   -2.8875    0.0000 C   0  0  0  0  0  0  0  0  0  0  0  0
    5.7158   -2.4750    0.0000 C   0  0  0  0  0  0  0  0  0  0  0  0
    5.7158   -1.6500    0.0000 F   0  0  0  0  0  0  0  0  0  0  0  0
    6.4302   -2.8875    0.0000 C   0  0  0  0  0  0  0  0  0  0  0  0
    6.4302   -3.7125    0.0000 C   0  0  0  0  0  0  0  0  0  0  0  0
    5.7158   -4.1250    0.0000 C   0  0  0  0  0  0  0  0  0  0  0  0
    7.1447   -4.1250    0.0000 C   0  0  0  0  0  0  0  0  0  0  0  0
    7.1447   -4.9500    0.0000 O   0  0  0  0  0  0  0  0  0  0  0  0
    7.8592   -3.7125    0.0000 N   0  0  0  0  0  0  0  0  0  0  0  0
    8.5737   -4.1250    0.0000 C   0  0  0  0  0  0  0  0  0  0  0  0
    9.2881   -3.7125    0.0000 C   0  0  0  0  0  0  0  0  0  0  0  0
    9.2881   -2.8875    0.0000 Br  0  0  0  0  0  0  0  0  0  0  0  0
   10.0026   -4.1250    0.0000 C   0  0  0  0  0  0  0  0  0  0  0  0
   10.0026   -4.9500    0.0000 C   0  0  0  0  0  0  0  0  0  0  0  0
   10.7171   -5.3625    0.0000 C   0  0  0  0  0  0  0  0  0  0  0  0
    9.2881   -5.3625    0.0000 C   0  0  0  0  0  0  0  0  0  0  0  0
    8.5737   -4.9500    0.0000 C   0  0  0  0  0  0  0  0  0  0  0  0
  1  2  1  0  0  0  0
  2  3  1  0  0  0  0
  3  4  1  0  0  0  0
  4  5  2  0  0  0  0
  4  6  1  0  0  0  0
  6  7  2  0  0  0  0
  7  8  1  0  0  0  0
  8  9  2  0  0  0  0
  9 10  1  0  0  0  0
  9 11  1  0  0  0  0
 11 12  2  0  0  0  0
  6 12  1  0  0  0  0
 12 13  1  0  0  0  0
  7 14  1  0  0  0  0
 14 15  2  0  0  0  0
 15 16  1  0  0  0  0
 16 17  1  0  0  0  0
 16 18  2  0  0  0  0
 18 19  1  0  0  0  0
 19 20  2  0  0  0  0
 14 20  1  0  0  0  0
 19 21  1  0  0  0  0
 21 22  2  0  0  0  0
 21 23  1  0  0  0  0
 23 24  1  0  0  0  0
 24 25  2  0  0  0  0
 25 26  1  0  0  0  0
 25 27  1  0  0  0  0
 27 28  2  0  0  0  0
 28 29  1  0  0  0  0
 28 30  1  0  0  0  0
 30 31  2  0  0  0  0
 24 31  1  0  0  0  0
M  END
> <ID>
CPD_4860

$$$$
CPD_4865
  Mrv1822 09091914012D          

 22 23  0  0  0  0            999 V2000
    1.4289   -6.6000    0.0000 C   0  0  0  0  0  0  0  0  0  0  0  0
    2.1434   -6.1875    0.0000 C   0  0  0  0  0  0  0  0  0  0  0  0
    2.8579   -6.6000    0.0000 O   0  0  0  0  0  0  0  0  0  0  0  0
    3.5724   -6.1875    0.0000 C   0  0  0  0  0  0  0  0  0  0  0  0
    4.2868   -6.6000    0.0000 C   0  0  0  0  0  0  0  0  0  0  0  0
    5.0013   -6.1875    0.0000 O   0  0  0  0  0  0  0  0  0  0  0  0
    5.7158   -6.6000    0.0000 C   0  0  0  0  0  0  0  0  0  0  0  0
    6.4302   -6.1875    0.0000 C   0  0  0  0  0  0  0  0  0  0  0  0
    7.1447   -6.6000    0.0000 C   0  0  0  0  0  0  0  0  0  0  0  0
    7.1447   -7.4250    0.0000 C   0  0  0  0  0  0  0  0  0  0  0  0
    6.4302   -7.8375    0.0000 C   0  0  0  0  0  0  0  0  0  0  0  0
    5.7158   -7.4250    0.0000 C   0  0  0  0  0  0  0  0  0  0  0  0
    7.8592   -7.8375    0.0000 C   0  0  0  0  0  0  0  0  0  0  0  0
    8.5737   -7.4250    0.0000 C   0  0  0  0  0  0  0  0  0  0  0  0
    9.2881   -7.8375    0.0000 C   0  0  0  0  0  0  0  0  0  0  0  0
   10.0026   -7.4250    0.0000 C   0  0  0  0  0  0  0  0  0  0  0  0
    9.2881   -8.6625    0.0000 C   0  0  0  0  0  0  0  0  0  0  0  0
   10.0026   -9.0750    0.0000 C   0  0  0  0  0  0  0  0  0  0  0  0
   10.7171   -9.4875    0.0000 N   0  0  0  0  0  0  0  0  0  0  0  0
    8.5737   -9.0750    0.0000 C   0  0  0  0  0  0  0  0  0  0  0  0
    8.5737   -9.9000    0.0000 C   0  0  0  0  0  0  0  0  0  0  0  0
    7.8592   -8.6625    0.0000 C   0  0  0  0  0  0  0  0  0  0  0  0
  1  2  1  0  0  0  0
  2  3  1  0  0  0  0
  3  4  1  0  0  0  0
  4  5  1  0  0  0  0
  5  6  1  0  0  0  0
  6  7  1  0  0  0  0
  7  8  2  0  0  0  0
  8  9  1  0  0  0  0
  9 10  2  0  0  0  0
 10 11  1  0  0  0  0
 11 12  2  0  0  0  0
  7 12  1  0  0  0  0
 10 13  1  0  0  0  0
 13 14  2  0  0  0  0
 14 15  1  0  0  0  0
 15 16  1  0  0  0  0
 15 17  2  0  0  0  0
 17 18  1  0  0  0  0
 18 19  3  0  0  0  0
 17 20  1  0  0  0  0
 20 21  1  0  0  0  0
 20 22  2  0  0  0  0
 13 22  1  0  0  0  0
M  END
> <ID>
CPD_4865

$$$$
CPD_4870
  Mrv1822 09091914012D          

 30 31  0  0  0  0            999 V2000
    1.4289   14.0250    0.0000 C   0  0  0  0  0  0  0  0  0  0  0  0
    2.1434   13.6125    0.0000 C   0  0  0  0  0  0  0  0  0  0  0  0
    2.1434   12.7875    0.0000 O   0  0  0  0  0  0  0  0  0  0  0  0
    2.8579   12.3750    0.0000 C   0  0  0  0  0  0  0  0  0  0  0  0
    2.8579   11.5500    0.0000 C   0  0  0  0  0  0  0  0  0  0  0  0
    3.5724   11.1375    0.0000 O   0  0  0  0  0  0  0  0  0  0  0  0
    3.5724   10.3125    0.0000 C   0  0  0  0  0  0  0  0  0  0  0  0
    4.2868    9.9000    0.0000 C   0  0  0  0  0  0  0  0  0  0  0  0
    4.2868    9.0750    0.0000 C   0  0  0  0  0  0  0  0  0  0  0  0
    3.5724    8.6625    0.0000 C   0  0  0  0  0  0  0  0  0  0  0  0
    2.8579    9.0750    0.0000 C   0  0  0  0  0  0  0  0  0  0  0  0
    2.8579    9.9000    0.0000 C   0  0  0  0  0  0  0  0  0  0  0  0
    3.5724    7.8375    0.0000 C   0  0  0  0  0  0  0  0  0  0  0  0
    4.2868    7.4250    0.0000 C   0  0  0  0  0  0  0  0  0  0  0  0
    5.0013    7.8375    0.0000 Cl  0  0  0  0  0  0  0  0  0  0  0  0
    4.2868    6.6000    0.0000 C   0  0  0  0  0  0  0  0  0  0  0  0
    3.5724    6.1875    0.0000 C   0  0  0  0  0  0  0  0  0  0  0  0
    2.8579    6.6000    0.0000 C   0  0  0  0  0  0  0  0  0  0  0  0
    2.8579    7.4250    0.0000 C   0  0  0  0  0  0  0  0  0  0  0  0
    3.5724    5.3625    0.0000 C   0  0  0  0  0  0  0  0  0  0  0  0
    2.8579    4.9500    0.0000 C   0  0  0  0  0  0  0  0  0  0  0  0
    2.1434    5.3625    0.0000 O   0  0  0  0  0  0  0  0  0  0  0  0
    2.8579    4.1250    0.0000 O   0  0  0  0  0  0  0  0  0  0  0  0
    2.1434    3.7125    0.0000 C   0  0  0  0  0  0  0  0  0  0  0  0
    2.1434    2.8875    0.0000 C   0  0  0  0  0  0  0  0  0  0  0  0
    4.2868    4.9500    0.0000 C   0  0  0  0  0  0  0  0  0  0  0  0
    5.0013    5.3625    0.0000 O   0  0  0  0  0  0  0  0  0  0  0  0
    4.2868    4.1250    0.0000 O   0  0  0  0  0  0  0  0  0  0  0  0
    5.0013    3.7125    0.0000 C   0  0  0  0  0  0  0  0  0  0  0  0
    5.0013    2.8875    0.0000 C   0  0  0  0  0  0  0  0  0  0  0  0
  1  2  1  0  0  0  0
  2  3  1  0  0  0  0
  3  4  1  0  0  0  0
  4  5  1  0  0  0  0
  5  6  1  0  0  0  0
  6  7  1  0  0  0  0
  7  8  2  0  0  0  0
  8  9  1  0  0  0  0
  9 10  2  0  0  0  0
 10 11  1  0  0  0  0
 11 12  2  0  0  0  0
  7 12  1  0  0  0  0
 10 13  1  0  0  0  0
 13 14  2  0  0  0  0
 14 15  1  0  0  0  0
 14 16  1  0  0  0  0
 16 17  2  0  0  0  0
 17 18  1  0  0  0  0
 18 19  2  0  0  0  0
 13 19  1  0  0  0  0
 17 20  1  0  0  0  0
 20 21  1  0  0  0  0
 21 22  2  0  0  0  0
 21 23  1  0  0  0  0
 23 24  1  0  0  0  0
 24 25  1  0  0  0  0
 20 26  1  0  0  0  0
 26 27  2  0  0  0  0
 26 28  1  0  0  0  0
 28 29  1  0  0  0  0
 29 30  1  0  0  0  0
M  END
> <ID>
CPD_4870

$$$$
CPD_4875
  Mrv1822 09091914012D          

 27 29  0  0  0  0            999 V2000
   -1.4289   -1.6500    0.0000 C   0  0  0  0  0  0  0  0  0  0  0  0
   -1.4289   -2.4750    0.0000 C   0  0  0  0  0  0  0  0  0  0  0  0
   -0.7145   -2.8875    0.0000 O   0  0  0  0  0  0  0  0  0  0  0  0
   -0.7145   -3.7125    0.0000 C   0  0  0  0  0  0  0  0  0  0  0  0
    0.0000   -4.1250    0.0000 C   0  0  0  0  0  0  0  0  0  0  0  0
    0.0000   -4.9500    0.0000 C   0  0  0  0  0  0  0  0  0  0  0  0
   -0.7145   -5.3625    0.0000 C   0  0  0  0  0  0  0  0  0  0  0  0
   -1.4289   -4.9500    0.0000 C   0  0  0  0  0  0  0  0  0  0  0  0
   -2.1434   -5.3625    0.0000 Br  0  0  0  0  0  0  0  0  0  0  0  0
   -1.4289   -4.1250    0.0000 C   0  0  0  0  0  0  0  0  0  0  0  0
    0.7145   -3.7125    0.0000 C   0  0  0  0  0  0  0  0  0  0  0  0
    0.7145   -2.8875    0.0000 C   0  0  0  0  0  0  0  0  0  0  0  0
    1.4289   -2.4750    0.0000 C   0  0  0  0  0  0  0  0  0  0  0  0
    1.4289   -1.6500    0.0000 N   0  0  0  0  0  0  0  0  0  0  0  0
    0.7145   -1.2375    0.0000 C   0  0  0  0  0  0  0  0  0  0  0  0
    0.0000   -1.6500    0.0000 O   0  0  0  0  0  0  0  0  0  0  0  0
    0.7145   -0.4125    0.0000 C   0  0  0  0  0  0  0  0  0  0  0  0
    0.0000   -0.0000    0.0000 C   0  0  0  0  0  0  0  0  0  0  0  0
   -0.7145   -0.4125    0.0000 O   0  0  0  0  0  0  0  0  0  0  0  0
   -1.4289    0.0000    0.0000 C   0  0  0  0  0  0  0  0  0  0  0  0
    0.0000    0.8250    0.0000 C   0  0  0  0  0  0  0  0  0  0  0  0
    0.7145    1.2375    0.0000 C   0  0  0  0  0  0  0  0  0  0  0  0
    1.4289    0.8250    0.0000 C   0  0  0  0  0  0  0  0  0  0  0  0
    1.4289   -0.0000    0.0000 C   0  0  0  0  0  0  0  0  0  0  0  0
    2.1434   -2.8875    0.0000 C   0  0  0  0  0  0  0  0  0  0  0  0
    2.1434   -3.7125    0.0000 C   0  0  0  0  0  0  0  0  0  0  0  0
    1.4289   -4.1250    0.0000 C   0  0  0  0  0  0  0  0  0  0  0  0
  1  2  1  0  0  0  0
  2  3  1  0  0  0  0
  3  4  1  0  0  0  0
  4  5  2  0  0  0  0
  5  6  1  0  0  0  0
  6  7  2  0  0  0  0
  7  8  1  0  0  0  0
  8  9  1  0  0  0  0
  8 10  2  0  0  0  0
  4 10  1  0  0  0  0
  5 11  1  0  0  0  0
 11 12  2  0  0  0  0
 12 13  1  0  0  0  0
 13 14  1  0  0  0  0
 14 15  1  0  0  0  0
 15 16  2  0  0  0  0
 15 17  1  0  0  0  0
 17 18  2  0  0  0  0
 18 19  1  0  0  0  0
 19 20  1  0  0  0  0
 18 21  1  0  0  0  0
 21 22  2  0  0  0  0
 22 23  1  0  0  0  0
 23 24  2  0  0  0  0
 17 24  1  0  0  0  0
 13 25  2  0  0  0  0
 25 26  1  0  0  0  0
 26 27  2  0  0  0  0
 11 27  1  0  0  0  0
M  END
> <ID>
CPD_4875

$$$$
CPD_4880
  Mrv1822 09091914012D          

 20 21  0  0  0  0            999 V2000
    0.0000    0.8250    0.0000 C   0  0  0  0  0  0  0  0  0  0  0  0
    0.0000   -0.0000    0.0000 C   0  0  0  0  0  0  0  0  0  0  0  0
    0.7145   -0.4125    0.0000 O   0  0  0  0  0  0  0  0  0  0  0  0
    0.7145   -1.2375    0.0000 C   0  0  0  0  0  0  0  0  0  0  0  0
    1.4289   -1.6500    0.0000 C   0  0  0  0  0  0  0  0  0  0  0  0
    1.4289   -2.4750    0.0000 C   0  0  0  0  0  0  0  0  0  0  0  0
    0.7145   -2.8875    0.0000 C   0  0  0  0  0  0  0  0  0  0  0  0
    0.0000   -2.4750    0.0000 C   0  0  0  0  0  0  0  0  0  0  0  0
   -0.7145   -2.8875    0.0000 Br  0  0  0  0  0  0  0  0  0  0  0  0
    0.0000   -1.6500    0.0000 C   0  0  0  0  0  0  0  0  0  0  0  0
    2.1434   -1.2375    0.0000 C   0  0  0  0  0  0  0  0  0  0  0  0
    2.1434   -0.4125    0.0000 C   0  0  0  0  0  0  0  0  0  0  0  0
    2.8579   -0.0000    0.0000 C   0  0  0  0  0  0  0  0  0  0  0  0
    3.5724   -0.4125    0.0000 C   0  0  0  0  0  0  0  0  0  0  0  0
    4.2868   -0.0000    0.0000 N   0  0  0  0  0  0  0  0  0  0  0  0
    5.0013   -0.4125    0.0000 C   0  0  0  0  0  0  0  0  0  0  0  0
    5.7158   -0.0000    0.0000 N   0  0  0  0  0  0  0  0  0  0  0  0
    5.0013   -1.2375    0.0000 S   0  0  0  0  0  0  0  0  0  0  0  0
    3.5724   -1.2375    0.0000 N   0  0  0  0  0  0  0  0  0  0  0  0
    2.8579   -1.6500    0.0000 C   0  0  0  0  0  0  0  0  0  0  0  0
  1  2  1  0  0  0  0
  2  3  1  0  0  0  0
  3  4  1  0  0  0  0
  4  5  2  0  0  0  0
  5  6  1  0  0  0  0
  6  7  2  0  0  0  0
  7  8  1  0  0  0  0
  8  9  1  0  0  0  0
  8 10  2  0  0  0  0
  4 10  1  0  0  0  0
  5 11  1  0  0  0  0
 11 12  2  0  0  0  0
 12 13  1  0  0  0  0
 13 14  2  0  0  0  0
 14 15  1  0  0  0  0
 15 16  1  0  0  0  0
 16 17  1  0  0  0  0
 16 18  2  0  0  0  0
 14 19  1  0  0  0  0
 19 20  2  0  0  0  0
 11 20  1  0  0  0  0
M  END
> <ID>
CPD_4880

$$$$
CPD_4885
  Mrv1822 09091914012D          

 19 20  0  0  0  0            999 V2000
    0.0000    0.8250    0.0000 C   0  0  0  0  0  0  0  0  0  0  0  0
    0.0000   -0.0000    0.0000 C   0  0  0  0  0  0  0  0  0  0  0  0
    0.7145   -0.4125    0.0000 O   0  0  0  0  0  0  0  0  0  0  0  0
    0.7145   -1.2375    0.0000 C   0  0  0  0  0  0  0  0  0  0  0  0
    1.4289   -1.6500    0.0000 C   0  0  0  0  0  0  0  0  0  0  0  0
    1.4289   -2.4750    0.0000 C   0  0  0  0  0  0  0  0  0  0  0  0
    0.7145   -2.8875    0.0000 C   0  0  0  0  0  0  0  0  0  0  0  0
    0.0000   -2.4750    0.0000 C   0  0  0  0  0  0  0  0  0  0  0  0
   -0.7145   -2.8875    0.0000 Br  0  0  0  0  0  0  0  0  0  0  0  0
    0.0000   -1.6500    0.0000 C   0  0  0  0  0  0  0  0  0  0  0  0
    2.1434   -1.2375    0.0000 C   0  0  0  0  0  0  0  0  0  0  0  0
    2.1434   -0.4125    0.0000 C   0  0  0  0  0  0  0  0  0  0  0  0
    2.8579   -0.0000    0.0000 C   0  0  0  0  0  0  0  0  0  0  0  0
    3.5724   -0.4125    0.0000 C   0  0  0  0  0  0  0  0  0  0  0  0
    3.5724   -1.2375    0.0000 C   0  0  0  0  0  0  0  0  0  0  0  0
    2.8579   -1.6500    0.0000 C   0  0  0  0  0  0  0  0  0  0  0  0
    2.8579    0.8250    0.0000 N   0  0  0  0  0  0  0  0  0  0  0  0
    2.1434    1.2375    0.0000 C   0  0  0  0  0  0  0  0  0  0  0  0
    3.5724    1.2375    0.0000 C   0  0  0  0  0  0  0  0  0  0  0  0
  1  2  1  0  0  0  0
  2  3  1  0  0  0  0
  3  4  1  0  0  0  0
  4  5  2  0  0  0  0
  5  6  1  0  0  0  0
  6  7  2  0  0  0  0
  7  8  1  0  0  0  0
  8  9  1  0  0  0  0
  8 10  2  0  0  0  0
  4 10  1  0  0  0  0
  5 11  1  0  0  0  0
 11 12  2  0  0  0  0
 12 13  1  0  0  0  0
 13 14  2  0  0  0  0
 14 15  1  0  0  0  0
 15 16  2  0  0  0  0
 11 16  1  0  0  0  0
 13 17  1  0  0  0  0
 17 18  1  0  0  0  0
 17 19  1  0  0  0  0
M  END
> <ID>
CPD_4885

$$$$
CPD_4890
  Mrv1822 09091914012D          

 22 23  0  0  0  0            999 V2000
    0.0000    0.8250    0.0000 C   0  0  0  0  0  0  0  0  0  0  0  0
    0.0000   -0.0000    0.0000 C   0  0  0  0  0  0  0  0  0  0  0  0
    0.7145   -0.4125    0.0000 O   0  0  0  0  0  0  0  0  0  0  0  0
    0.7145   -1.2375    0.0000 C   0  0  0  0  0  0  0  0  0  0  0  0
    1.4289   -1.6500    0.0000 C   0  0  0  0  0  0  0  0  0  0  0  0
    1.4289   -2.4750    0.0000 C   0  0  0  0  0  0  0  0  0  0  0  0
    0.7145   -2.8875    0.0000 C   0  0  0  0  0  0  0  0  0  0  0  0
    0.0000   -2.4750    0.0000 C   0  0  0  0  0  0  0  0  0  0  0  0
   -0.7145   -2.8875    0.0000 Br  0  0  0  0  0  0  0  0  0  0  0  0
    0.0000   -1.6500    0.0000 C   0  0  0  0  0  0  0  0  0  0  0  0
    2.1434   -1.2375    0.0000 C   0  0  0  0  0  0  0  0  0  0  0  0
    2.1434   -0.4125    0.0000 N   0  0  0  0  0  0  0  0  0  0  0  0
    2.8579   -0.0000    0.0000 C   0  0  0  0  0  0  0  0  0  0  0  0
    3.5724   -0.4125    0.0000 C   0  0  0  0  0  0  0  0  0  0  0  0
    3.5724   -1.2375    0.0000 C   0  0  0  0  0  0  0  0  0  0  0  0
    2.8579   -1.6500    0.0000 C   0  0  0  0  0  0  0  0  0  0  0  0
    2.8579   -2.4750    0.0000 C   0  0  0  0  0  0  0  0  0  0  0  0
    2.1434   -2.8875    0.0000 O   0  0  0  0  0  0  0  0  0  0  0  0
    2.8579    0.8250    0.0000 C   0  0  0  0  0  0  0  0  0  0  0  0
    2.8579    1.6500    0.0000 F   0  0  0  0  0  0  0  0  0  0  0  0
    3.6829    0.8250    0.0000 F   0  0  0  0  0  0  0  0  0  0  0  0
    2.0329    0.8250    0.0000 F   0  0  0  0  0  0  0  0  0  0  0  0
  1  2  1  0  0  0  0
  2  3  1  0  0  0  0
  3  4  1  0  0  0  0
  4  5  2  0  0  0  0
  5  6  1  0  0  0  0
  6  7  2  0  0  0  0
  7  8  1  0  0  0  0
  8  9  1  0  0  0  0
  8 10  2  0  0  0  0
  4 10  1  0  0  0  0
  5 11  1  0  0  0  0
 11 12  2  0  0  0  0
 12 13  1  0  0  0  0
 13 14  2  0  0  0  0
 14 15  1  0  0  0  0
 15 16  2  0  0  0  0
 11 16  1  0  0  0  0
 16 17  1  0  0  0  0
 17 18  1  0  0  0  0
 13 19  1  0  0  0  0
 19 20  1  0  0  0  0
 19 21  1  0  0  0  0
 19 22  1  0  0  0  0
M  END
> <ID>
CPD_4890

$$$$
CPD_4895
  Mrv1822 09091914012D          

 32 34  0  0  0  0            999 V2000
    2.1434   -2.8875    0.0000 C   0  0  0  0  0  0  0  0  0  0  0  0
    2.1434   -3.7125    0.0000 C   0  0  0  0  0  0  0  0  0  0  0  0
    2.8579   -4.1250    0.0000 O   0  0  0  0  0  0  0  0  0  0  0  0
    2.8579   -4.9500    0.0000 C   0  0  0  0  0  0  0  0  0  0  0  0
    3.5724   -5.3625    0.0000 C   0  0  0  0  0  0  0  0  0  0  0  0
    4.2868   -4.9500    0.0000 F   0  0  0  0  0  0  0  0  0  0  0  0
    3.5724   -6.1875    0.0000 C   0  0  0  0  0  0  0  0  0  0  0  0
    2.8579   -6.6000    0.0000 C   0  0  0  0  0  0  0  0  0  0  0  0
    2.1434   -6.1875    0.0000 C   0  0  0  0  0  0  0  0  0  0  0  0
    1.4289   -6.6000    0.0000 O   0  0  0  0  0  0  0  0  0  0  0  0
    0.7145   -6.1875    0.0000 C   0  0  0  0  0  0  0  0  0  0  0  0
    1.1270   -5.4730    0.0000 F   0  0  0  0  0  0  0  0  0  0  0  0
    0.3020   -6.9020    0.0000 F   0  0  0  0  0  0  0  0  0  0  0  0
    0.0000   -5.7750    0.0000 F   0  0  0  0  0  0  0  0  0  0  0  0
    2.1434   -5.3625    0.0000 C   0  0  0  0  0  0  0  0  0  0  0  0
    4.2868   -6.6000    0.0000 C   0  0  0  0  0  0  0  0  0  0  0  0
    5.0013   -6.1875    0.0000 C   0  0  0  0  0  0  0  0  0  0  0  0
    5.7158   -6.6000    0.0000 C   0  0  0  0  0  0  0  0  0  0  0  0
    6.4302   -6.1875    0.0000 C   0  0  0  0  0  0  0  0  0  0  0  0
    7.1447   -6.6000    0.0000 N   0  0  0  0  0  0  0  0  0  0  0  0
    7.8592   -6.1875    0.0000 C   0  0  0  0  0  0  0  0  0  0  0  0
    7.8592   -5.3625    0.0000 O   0  0  0  0  0  0  0  0  0  0  0  0
    8.5737   -6.6000    0.0000 C   0  0  0  0  0  0  0  0  0  0  0  0
    9.2881   -6.1875    0.0000 C   0  0  0  0  0  0  0  0  0  0  0  0
   10.0026   -6.6000    0.0000 C   0  0  0  0  0  0  0  0  0  0  0  0
   10.0026   -7.4250    0.0000 C   0  0  0  0  0  0  0  0  0  0  0  0
    9.2881   -7.8375    0.0000 C   0  0  0  0  0  0  0  0  0  0  0  0
    9.2881   -8.6625    0.0000 O   0  0  0  0  0  0  0  0  0  0  0  0
    8.5737   -7.4250    0.0000 N   0  0  0  0  0  0  0  0  0  0  0  0
    5.7158   -7.4250    0.0000 C   0  0  0  0  0  0  0  0  0  0  0  0
    5.0013   -7.8375    0.0000 C   0  0  0  0  0  0  0  0  0  0  0  0
    4.2868   -7.4250    0.0000 C   0  0  0  0  0  0  0  0  0  0  0  0
  1  2  1  0  0  0  0
  2  3  1  0  0  0  0
  3  4  1  0  0  0  0
  4  5  2  0  0  0  0
  5  6  1  0  0  0  0
  5  7  1  0  0  0  0
  7  8  2  0  0  0  0
  8  9  1  0  0  0  0
  9 10  1  0  0  0  0
 10 11  1  0  0  0  0
 11 12  1  0  0  0  0
 11 13  1  0  0  0  0
 11 14  1  0  0  0  0
  9 15  2  0  0  0  0
  4 15  1  0  0  0  0
  7 16  1  0  0  0  0
 16 17  2  0  0  0  0
 17 18  1  0  0  0  0
 18 19  1  0  0  0  0
 19 20  1  0  0  0  0
 20 21  1  0  0  0  0
 21 22  2  0  0  0  0
 21 23  1  0  0  0  0
 23 24  2  0  0  0  0
 24 25  1  0  0  0  0
 25 26  2  0  0  0  0
 26 27  1  0  0  0  0
 27 28  2  0  0  0  0
 27 29  1  0  0  0  0
 23 29  1  0  0  0  0
 18 30  2  0  0  0  0
 30 31  1  0  0  0  0
 31 32  2  0  0  0  0
 16 32  1  0  0  0  0
M  END
> <ID>
CPD_4895

$$$$
CPD_4900
  Mrv1822 09091914012D          

 29 31  0  0  0  0            999 V2000
    2.0367    9.3027    0.0000 C   0  0  0  0  0  0  0  0  0  0  0  0
    2.0367    8.4777    0.0000 C   0  0  0  0  0  0  0  0  0  0  0  0
    2.7512    8.0652    0.0000 O   0  0  0  0  0  0  0  0  0  0  0  0
    2.7512    7.2402    0.0000 C   0  0  0  0  0  0  0  0  0  0  0  0
    3.4656    6.8277    0.0000 C   0  0  0  0  0  0  0  0  0  0  0  0
    4.1801    7.2402    0.0000 F   0  0  0  0  0  0  0  0  0  0  0  0
    3.4656    6.0027    0.0000 C   0  0  0  0  0  0  0  0  0  0  0  0
    2.7512    5.5902    0.0000 C   0  0  0  0  0  0  0  0  0  0  0  0
    2.0367    6.0027    0.0000 C   0  0  0  0  0  0  0  0  0  0  0  0
    1.3222    5.5902    0.0000 O   0  0  0  0  0  0  0  0  0  0  0  0
    0.6078    6.0027    0.0000 C   0  0  0  0  0  0  0  0  0  0  0  0
    1.0203    6.7172    0.0000 F   0  0  0  0  0  0  0  0  0  0  0  0
    0.1953    5.2882    0.0000 F   0  0  0  0  0  0  0  0  0  0  0  0
   -0.1067    6.4152    0.0000 F   0  0  0  0  0  0  0  0  0  0  0  0
    2.0367    6.8277    0.0000 C   0  0  0  0  0  0  0  0  0  0  0  0
    4.1801    5.5902    0.0000 C   0  0  0  0  0  0  0  0  0  0  0  0
    4.8946    6.0027    0.0000 C   0  0  0  0  0  0  0  0  0  0  0  0
    5.6091    5.5902    0.0000 C   0  0  0  0  0  0  0  0  0  0  0  0
    5.6091    4.7652    0.0000 C   0  0  0  0  0  0  0  0  0  0  0  0
    4.8946    4.3527    0.0000 C   0  0  0  0  0  0  0  0  0  0  0  0
    4.8946    3.5277    0.0000 C   0  0  0  0  0  0  0  0  0  0  0  0
    4.1801    3.1152    0.0000 S   0  0  0  0  0  0  0  0  0  0  0  0
    4.1801    2.2902    0.0000 C   0  0  0  0  0  0  0  0  0  0  0  0
    4.8476    1.8053    0.0000 N   0  0  0  0  0  0  0  0  0  0  0  0
    4.5926    1.0206    0.0000 N   0  0  0  0  0  0  0  0  0  0  0  0
    3.7676    1.0206    0.0000 C   0  0  0  0  0  0  0  0  0  0  0  0
    3.2827    0.3532    0.0000 N   0  0  0  0  0  0  0  0  0  0  0  0
    3.5127    1.8053    0.0000 S   0  0  0  0  0  0  0  0  0  0  0  0
    4.1801    4.7652    0.0000 C   0  0  0  0  0  0  0  0  0  0  0  0
  1  2  1  0  0  0  0
  2  3  1  0  0  0  0
  3  4  1  0  0  0  0
  4  5  2  0  0  0  0
  5  6  1  0  0  0  0
  5  7  1  0  0  0  0
  7  8  2  0  0  0  0
  8  9  1  0  0  0  0
  9 10  1  0  0  0  0
 10 11  1  0  0  0  0
 11 12  1  0  0  0  0
 11 13  1  0  0  0  0
 11 14  1  0  0  0  0
  9 15  2  0  0  0  0
  4 15  1  0  0  0  0
  7 16  1  0  0  0  0
 16 17  2  0  0  0  0
 17 18  1  0  0  0  0
 18 19  2  0  0  0  0
 19 20  1  0  0  0  0
 20 21  1  0  0  0  0
 21 22  1  0  0  0  0
 22 23  1  0  0  0  0
 23 24  2  0  0  0  0
 24 25  1  0  0  0  0
 25 26  2  0  0  0  0
 26 27  1  0  0  0  0
 26 28  1  0  0  0  0
 23 28  1  0  0  0  0
 20 29  2  0  0  0  0
 16 29  1  0  0  0  0
M  END
> <ID>
CPD_4900

$$$$
CPD_4905
  Mrv1822 09091914012D          

 23 24  0  0  0  0            999 V2000
    2.1434    1.2375    0.0000 C   0  0  0  0  0  0  0  0  0  0  0  0
    1.4289    0.8250    0.0000 C   0  0  0  0  0  0  0  0  0  0  0  0
    1.4289   -0.0000    0.0000 C   0  0  0  0  0  0  0  0  0  0  0  0
    0.7145   -0.4125    0.0000 O   0  0  0  0  0  0  0  0  0  0  0  0
    0.7145   -1.2375    0.0000 C   0  0  0  0  0  0  0  0  0  0  0  0
    1.4289   -1.6500    0.0000 C   0  0  0  0  0  0  0  0  0  0  0  0
    1.4289   -2.4750    0.0000 C   0  0  0  0  0  0  0  0  0  0  0  0
    2.1434   -2.8875    0.0000 F   0  0  0  0  0  0  0  0  0  0  0  0
    0.7145   -2.8875    0.0000 C   0  0  0  0  0  0  0  0  0  0  0  0
    0.0000   -2.4750    0.0000 C   0  0  0  0  0  0  0  0  0  0  0  0
    0.0000   -1.6500    0.0000 C   0  0  0  0  0  0  0  0  0  0  0  0
   -0.7145   -1.2375    0.0000 C   0  0  0  0  0  0  0  0  0  0  0  0
   -1.4289   -1.6500    0.0000 C   0  0  0  0  0  0  0  0  0  0  0  0
   -1.4289   -2.4750    0.0000 O   0  0  0  0  0  0  0  0  0  0  0  0
   -2.1434   -2.8875    0.0000 C   0  0  0  0  0  0  0  0  0  0  0  0
   -2.1434   -1.2375    0.0000 N   0  0  0  0  0  0  0  0  0  0  0  0
   -2.1434   -0.4125    0.0000 C   0  0  0  0  0  0  0  0  0  0  0  0
   -2.8579    0.0000    0.0000 O   0  0  0  0  0  0  0  0  0  0  0  0
   -3.5724   -0.4125    0.0000 C   0  0  0  0  0  0  0  0  0  0  0  0
   -1.4289   -0.0000    0.0000 C   0  0  0  0  0  0  0  0  0  0  0  0
   -1.4289    0.8250    0.0000 O   0  0  0  0  0  0  0  0  0  0  0  0
   -0.7145    1.2375    0.0000 C   0  0  0  0  0  0  0  0  0  0  0  0
   -0.7145   -0.4125    0.0000 C   0  0  0  0  0  0  0  0  0  0  0  0
  1  2  1  0  0  0  0
  2  3  1  0  0  0  0
  3  4  1  0  0  0  0
  4  5  1  0  0  0  0
  5  6  2  0  0  0  0
  6  7  1  0  0  0  0
  7  8  1  0  0  0  0
  7  9  2  0  0  0  0
  9 10  1  0  0  0  0
 10 11  2  0  0  0  0
  5 11  1  0  0  0  0
 11 12  1  0  0  0  0
 12 13  2  0  0  0  0
 13 14  1  0  0  0  0
 14 15  1  0  0  0  0
 13 16  1  0  0  0  0
 16 17  2  0  0  0  0
 17 18  1  0  0  0  0
 18 19  1  0  0  0  0
 17 20  1  0  0  0  0
 20 21  1  0  0  0  0
 21 22  1  0  0  0  0
 20 23  2  0  0  0  0
 12 23  1  0  0  0  0
M  END
> <ID>
CPD_4905

$$$$
CPD_4910
  Mrv1822 09091914012D          

 26 28  0  0  0  0            999 V2000
    2.1434   -1.2375    0.0000 C   0  0  0  0  0  0  0  0  0  0  0  0
    2.8579   -1.6500    0.0000 O   0  0  0  0  0  0  0  0  0  0  0  0
    2.8579   -2.4750    0.0000 C   0  0  0  0  0  0  0  0  0  0  0  0
    3.5724   -2.8875    0.0000 C   0  0  0  0  0  0  0  0  0  0  0  0
    3.5724   -3.7125    0.0000 C   0  0  0  0  0  0  0  0  0  0  0  0
    2.8579   -4.1250    0.0000 C   0  0  0  0  0  0  0  0  0  0  0  0
    2.8579   -4.9500    0.0000 O   0  0  0  0  0  0  0  0  0  0  0  0
    2.1434   -5.3625    0.0000 C   0  0  0  0  0  0  0  0  0  0  0  0
    2.1434   -3.7125    0.0000 N   0  0  0  0  0  0  0  0  0  0  0  0
    2.1434   -2.8875    0.0000 C   0  0  0  0  0  0  0  0  0  0  0  0
    1.4289   -2.4750    0.0000 O   0  0  0  0  0  0  0  0  0  0  0  0
    1.4289   -1.6500    0.0000 C   0  0  0  0  0  0  0  0  0  0  0  0
    4.2868   -4.1250    0.0000 C   0  0  0  0  0  0  0  0  0  0  0  0
    5.0013   -3.7125    0.0000 C   0  0  0  0  0  0  0  0  0  0  0  0
    5.7158   -4.1250    0.0000 C   0  0  0  0  0  0  0  0  0  0  0  0
    5.7158   -4.9500    0.0000 C   0  0  0  0  0  0  0  0  0  0  0  0
    5.0013   -5.3625    0.0000 C   0  0  0  0  0  0  0  0  0  0  0  0
    4.2868   -4.9500    0.0000 N   0  0  0  0  0  0  0  0  0  0  0  0
    5.0013   -6.1875    0.0000 C   0  0  0  0  0  0  0  0  0  0  0  0
    5.7158   -6.6000    0.0000 N   0  0  0  0  0  0  0  0  0  0  0  0
    5.7158   -7.4250    0.0000 C   0  0  0  0  0  0  0  0  0  0  0  0
    5.0013   -7.8375    0.0000 C   0  0  0  0  0  0  0  0  0  0  0  0
    4.2868   -7.4250    0.0000 N   0  0  0  0  0  0  0  0  0  0  0  0
    4.2868   -6.6000    0.0000 C   0  0  0  0  0  0  0  0  0  0  0  0
    5.0013   -2.8875    0.0000 C   0  0  0  0  0  0  0  0  0  0  0  0
    5.0013   -2.0625    0.0000 N   0  0  0  0  0  0  0  0  0  0  0  0
  1  2  1  0  0  0  0
  2  3  1  0  0  0  0
  3  4  2  0  0  0  0
  4  5  1  0  0  0  0
  5  6  2  0  0  0  0
  6  7  1  0  0  0  0
  7  8  1  0  0  0  0
  6  9  1  0  0  0  0
  9 10  2  0  0  0  0
  3 10  1  0  0  0  0
 10 11  1  0  0  0  0
 11 12  1  0  0  0  0
  5 13  1  0  0  0  0
 13 14  2  0  0  0  0
 14 15  1  0  0  0  0
 15 16  2  0  0  0  0
 16 17  1  0  0  0  0
 17 18  2  0  0  0  0
 13 18  1  0  0  0  0
 17 19  1  0  0  0  0
 19 20  2  0  0  0  0
 20 21  1  0  0  0  0
 21 22  2  0  0  0  0
 22 23  1  0  0  0  0
 23 24  2  0  0  0  0
 19 24  1  0  0  0  0
 14 25  1  0  0  0  0
 25 26  3  0  0  0  0
M  END
> <ID>
CPD_4910

$$$$
CPD_4915
  Mrv1822 09091914012D          

 23 24  0  0  0  0            999 V2000
   -1.4289   -1.6500    0.0000 C   0  0  0  0  0  0  0  0  0  0  0  0
   -0.7145   -2.0625    0.0000 O   0  0  0  0  0  0  0  0  0  0  0  0
   -0.7145   -2.8875    0.0000 C   0  0  0  0  0  0  0  0  0  0  0  0
    0.0000   -3.3000    0.0000 C   0  0  0  0  0  0  0  0  0  0  0  0
    0.0000   -4.1250    0.0000 C   0  0  0  0  0  0  0  0  0  0  0  0
    0.7145   -4.5375    0.0000 C   0  0  0  0  0  0  0  0  0  0  0  0
    0.7145   -5.3625    0.0000 C   0  0  0  0  0  0  0  0  0  0  0  0
    1.5395   -5.3625    0.0000 F   0  0  0  0  0  0  0  0  0  0  0  0
   -0.1105   -5.3625    0.0000 F   0  0  0  0  0  0  0  0  0  0  0  0
    0.7145   -6.1875    0.0000 O   0  0  0  0  0  0  0  0  0  0  0  0
    1.4289   -6.6000    0.0000 C   0  0  0  0  0  0  0  0  0  0  0  0
    2.1434   -6.1875    0.0000 C   0  0  0  0  0  0  0  0  0  0  0  0
    2.8579   -6.6000    0.0000 C   0  0  0  0  0  0  0  0  0  0  0  0
    2.8579   -7.4250    0.0000 C   0  0  0  0  0  0  0  0  0  0  0  0
    2.1434   -7.8375    0.0000 C   0  0  0  0  0  0  0  0  0  0  0  0
    1.4289   -7.4250    0.0000 C   0  0  0  0  0  0  0  0  0  0  0  0
   -0.7145   -4.5375    0.0000 C   0  0  0  0  0  0  0  0  0  0  0  0
   -0.7145   -5.3625    0.0000 O   0  0  0  0  0  0  0  0  0  0  0  0
   -1.4289   -5.7750    0.0000 C   0  0  0  0  0  0  0  0  0  0  0  0
   -1.4289   -4.1250    0.0000 N   0  0  0  0  0  0  0  0  0  0  0  0
   -1.4289   -3.3000    0.0000 C   0  0  0  0  0  0  0  0  0  0  0  0
   -2.1434   -2.8875    0.0000 O   0  0  0  0  0  0  0  0  0  0  0  0
   -2.1434   -2.0625    0.0000 C   0  0  0  0  0  0  0  0  0  0  0  0
  1  2  1  0  0  0  0
  2  3  1  0  0  0  0
  3  4  2  0  0  0  0
  4  5  1  0  0  0  0
  5  6  1  0  0  0  0
  6  7  1  0  0  0  0
  7  8  1  0  0  0  0
  7  9  1  0  0  0  0
  7 10  1  0  0  0  0
 10 11  1  0  0  0  0
 11 12  2  0  0  0  0
 12 13  1  0  0  0  0
 13 14  2  0  0  0  0
 14 15  1  0  0  0  0
 15 16  2  0  0  0  0
 11 16  1  0  0  0  0
  5 17  2  0  0  0  0
 17 18  1  0  0  0  0
 18 19  1  0  0  0  0
 17 20  1  0  0  0  0
 20 21  2  0  0  0  0
  3 21  1  0  0  0  0
 21 22  1  0  0  0  0
 22 23  1  0  0  0  0
M  END
> <ID>
CPD_4915

$$$$
CPD_4920
  Mrv1822 09091914012D          

 32 35  0  0  0  0            999 V2000
   -2.1434   -3.7125    0.0000 C   0  0  0  0  0  0  0  0  0  0  0  0
   -1.4289   -4.1250    0.0000 O   0  0  0  0  0  0  0  0  0  0  0  0
   -1.4289   -4.9500    0.0000 C   0  0  0  0  0  0  0  0  0  0  0  0
   -0.7145   -5.3625    0.0000 C   0  0  0  0  0  0  0  0  0  0  0  0
   -0.7145   -6.1875    0.0000 C   0  0  0  0  0  0  0  0  0  0  0  0
   -1.4289   -6.6000    0.0000 C   0  0  0  0  0  0  0  0  0  0  0  0
   -1.4289   -7.4250    0.0000 O   0  0  0  0  0  0  0  0  0  0  0  0
   -2.1434   -7.8375    0.0000 C   0  0  0  0  0  0  0  0  0  0  0  0
   -2.1434   -6.1875    0.0000 N   0  0  0  0  0  0  0  0  0  0  0  0
   -2.1434   -5.3625    0.0000 C   0  0  0  0  0  0  0  0  0  0  0  0
   -2.8579   -4.9500    0.0000 O   0  0  0  0  0  0  0  0  0  0  0  0
   -2.8579   -4.1250    0.0000 C   0  0  0  0  0  0  0  0  0  0  0  0
    0.0000   -6.6000    0.0000 C   0  0  0  0  0  0  0  0  0  0  0  0
    0.7145   -6.1875    0.0000 C   0  0  0  0  0  0  0  0  0  0  0  0
    1.4289   -6.6000    0.0000 C   0  0  0  0  0  0  0  0  0  0  0  0
    1.4289   -7.4250    0.0000 C   0  0  0  0  0  0  0  0  0  0  0  0
    0.7145   -7.8375    0.0000 C   0  0  0  0  0  0  0  0  0  0  0  0
    0.0000   -7.4250    0.0000 C   0  0  0  0  0  0  0  0  0  0  0  0
    0.7145   -8.6625    0.0000 C   0  0  0  0  0  0  0  0  0  0  0  0
    1.4289   -9.0750    0.0000 C   0  0  0  0  0  0  0  0  0  0  0  0
    1.4289   -9.9000    0.0000 C   0  0  0  0  0  0  0  0  0  0  0  0
    0.7145  -10.3125    0.0000 N   0  0  0  0  0  0  0  0  0  0  0  0
    0.0000   -9.9000    0.0000 C   0  0  0  0  0  0  0  0  0  0  0  0
   -0.7145  -10.3125    0.0000 N   0  0  0  0  0  0  0  0  0  0  0  0
    0.0000   -9.0750    0.0000 N   0  0  0  0  0  0  0  0  0  0  0  0
    2.1434  -10.3125    0.0000 C   0  0  0  0  0  0  0  0  0  0  0  0
    2.8579   -9.9000    0.0000 C   0  0  0  0  0  0  0  0  0  0  0  0
    3.5724  -10.3125    0.0000 C   0  0  0  0  0  0  0  0  0  0  0  0
    3.5724  -11.1375    0.0000 C   0  0  0  0  0  0  0  0  0  0  0  0
    4.2868  -11.5500    0.0000 F   0  0  0  0  0  0  0  0  0  0  0  0
    2.8579  -11.5500    0.0000 C   0  0  0  0  0  0  0  0  0  0  0  0
    2.1434  -11.1375    0.0000 C   0  0  0  0  0  0  0  0  0  0  0  0
  1  2  1  0  0  0  0
  2  3  1  0  0  0  0
  3  4  2  0  0  0  0
  4  5  1  0  0  0  0
  5  6  2  0  0  0  0
  6  7  1  0  0  0  0
  7  8  1  0  0  0  0
  6  9  1  0  0  0  0
  9 10  2  0  0  0  0
  3 10  1  0  0  0  0
 10 11  1  0  0  0  0
 11 12  1  0  0  0  0
  5 13  1  0  0  0  0
 13 14  2  0  0  0  0
 14 15  1  0  0  0  0
 15 16  2  0  0  0  0
 16 17  1  0  0  0  0
 17 18  2  0  0  0  0
 13 18  1  0  0  0  0
 17 19  1  0  0  0  0
 19 20  2  0  0  0  0
 20 21  1  0  0  0  0
 21 22  2  0  0  0  0
 22 23  1  0  0  0  0
 23 24  1  0  0  0  0
 23 25  2  0  0  0  0
 19 25  1  0  0  0  0
 21 26  1  0  0  0  0
 26 27  2  0  0  0  0
 27 28  1  0  0  0  0
 28 29  2  0  0  0  0
 29 30  1  0  0  0  0
 29 31  1  0  0  0  0
 31 32  2  0  0  0  0
 26 32  1  0  0  0  0
M  END
> <ID>
CPD_4920

$$$$
CPD_4925
  Mrv1822 09091914012D          

 19 21  0  0  0  0            999 V2000
    4.7920    1.1167    0.0000 Cl  0  0  0  0  0  0  0  0  0  0  0  0
    4.0776    0.7042    0.0000 C   0  0  0  0  0  0  0  0  0  0  0  0
    4.0776   -0.1208    0.0000 C   0  0  0  0  0  0  0  0  0  0  0  0
    4.7920   -0.5333    0.0000 C   0  0  0  0  0  0  0  0  0  0  0  0
    4.7920   -1.3583    0.0000 C   0  0  0  0  0  0  0  0  0  0  0  0
    5.3754   -1.9417    0.0000 C   0  0  0  0  0  0  0  0  0  0  0  0
    4.7920   -2.5250    0.0000 O   0  0  0  0  0  0  0  0  0  0  0  0
    4.2087   -1.9417    0.0000 C   0  0  0  0  0  0  0  0  0  0  0  0
    3.3631   -0.5333    0.0000 C   0  0  0  0  0  0  0  0  0  0  0  0
    2.6486   -0.1208    0.0000 C   0  0  0  0  0  0  0  0  0  0  0  0
    2.6486    0.7042    0.0000 N   0  0  0  0  0  0  0  0  0  0  0  0
    3.3631    1.1167    0.0000 C   0  0  0  0  0  0  0  0  0  0  0  0
    3.3631    1.9417    0.0000 O   0  0  0  0  0  0  0  0  0  0  0  0
    4.0776    2.3542    0.0000 C   0  0  0  0  0  0  0  0  0  0  0  0
    4.0776    3.1792    0.0000 C   0  0  0  0  0  0  0  0  0  0  0  0
    4.7920    3.5917    0.0000 C   0  0  0  0  0  0  0  0  0  0  0  0
    5.5065    3.1792    0.0000 C   0  0  0  0  0  0  0  0  0  0  0  0
    5.5065    2.3542    0.0000 C   0  0  0  0  0  0  0  0  0  0  0  0
    4.7920    1.9417    0.0000 C   0  0  0  0  0  0  0  0  0  0  0  0
  1  2  1  0  0  0  0
  2  3  2  0  0  0  0
  3  4  1  0  0  0  0
  4  5  1  0  0  0  0
  5  6  1  0  0  0  0
  6  7  1  0  0  0  0
  7  8  1  0  0  0  0
  5  8  1  0  0  0  0
  3  9  1  0  0  0  0
  9 10  2  0  0  0  0
 10 11  1  0  0  0  0
 11 12  2  0  0  0  0
  2 12  1  0  0  0  0
 12 13  1  0  0  0  0
 13 14  1  0  0  0  0
 14 15  1  0  0  0  0
 15 16  1  0  0  0  0
 16 17  1  0  0  0  0
 17 18  1  0  0  0  0
 18 19  1  0  0  0  0
 14 19  1  0  0  0  0
M  END
> <ID>
CPD_4925

$$$$
CPD_4930
  Mrv1822 09091914012D          

 30 33  0  0  0  0            999 V2000
    3.5724   -5.3625    0.0000 N   0  0  0  0  0  0  0  0  0  0  0  0
    3.5724   -6.1875    0.0000 C   0  0  0  0  0  0  0  0  0  0  0  0
    4.2868   -6.6000    0.0000 C   0  0  0  0  0  0  0  0  0  0  0  0
    4.2868   -7.4250    0.0000 C   0  0  0  0  0  0  0  0  0  0  0  0
    5.0013   -7.8375    0.0000 O   0  0  0  0  0  0  0  0  0  0  0  0
    3.5724   -7.8375    0.0000 N   0  0  0  0  0  0  0  0  0  0  0  0
    2.8579   -7.4250    0.0000 C   0  0  0  0  0  0  0  0  0  0  0  0
    2.1434   -7.8375    0.0000 N   0  0  0  0  0  0  0  0  0  0  0  0
    1.4289   -7.4250    0.0000 C   0  0  0  0  0  0  0  0  0  0  0  0
    0.7145   -7.8375    0.0000 C   0  0  0  0  0  0  0  0  0  0  0  0
    0.0000   -7.4250    0.0000 C   0  0  0  0  0  0  0  0  0  0  0  0
    0.0000   -6.6000    0.0000 C   0  0  0  0  0  0  0  0  0  0  0  0
    0.7145   -6.1875    0.0000 C   0  0  0  0  0  0  0  0  0  0  0  0
    1.4289   -6.6000    0.0000 C   0  0  0  0  0  0  0  0  0  0  0  0
    2.1434   -6.1875    0.0000 Cl  0  0  0  0  0  0  0  0  0  0  0  0
   -0.7145   -6.1875    0.0000 C   0  0  0  0  0  0  0  0  0  0  0  0
   -1.4289   -6.6000    0.0000 C   0  0  0  0  0  0  0  0  0  0  0  0
   -1.4289   -7.4250    0.0000 Cl  0  0  0  0  0  0  0  0  0  0  0  0
   -2.1434   -6.1875    0.0000 C   0  0  0  0  0  0  0  0  0  0  0  0
   -2.8579   -6.6000    0.0000 O   0  0  0  0  0  0  0  0  0  0  0  0
   -3.5724   -6.1875    0.0000 C   0  0  0  0  0  0  0  0  0  0  0  0
   -4.2868   -6.6000    0.0000 C   0  0  0  0  0  0  0  0  0  0  0  0
   -5.0013   -6.1875    0.0000 C   0  0  0  0  0  0  0  0  0  0  0  0
   -5.0013   -5.3625    0.0000 C   0  0  0  0  0  0  0  0  0  0  0  0
   -4.2868   -4.9500    0.0000 C   0  0  0  0  0  0  0  0  0  0  0  0
   -3.5724   -5.3625    0.0000 C   0  0  0  0  0  0  0  0  0  0  0  0
   -2.1434   -5.3625    0.0000 N   0  0  0  0  0  0  0  0  0  0  0  0
   -1.4289   -4.9500    0.0000 C   0  0  0  0  0  0  0  0  0  0  0  0
   -0.7145   -5.3625    0.0000 C   0  0  0  0  0  0  0  0  0  0  0  0
    2.8579   -6.6000    0.0000 N   0  0  0  0  0  0  0  0  0  0  0  0
  1  2  1  0  0  0  0
  2  3  2  0  0  0  0
  3  4  1  0  0  0  0
  4  5  2  0  0  0  0
  4  6  1  0  0  0  0
  6  7  1  0  0  0  0
  7  8  1  0  0  0  0
  8  9  1  0  0  0  0
  9 10  2  0  0  0  0
 10 11  1  0  0  0  0
 11 12  2  0  0  0  0
 12 13  1  0  0  0  0
 13 14  2  0  0  0  0
  9 14  1  0  0  0  0
 14 15  1  0  0  0  0
 12 16  1  0  0  0  0
 16 17  2  0  0  0  0
 17 18  1  0  0  0  0
 17 19  1  0  0  0  0
 19 20  1  0  0  0  0
 20 21  1  0  0  0  0
 21 22  1  0  0  0  0
 22 23  1  0  0  0  0
 23 24  1  0  0  0  0
 24 25  1  0  0  0  0
 25 26  1  0  0  0  0
 21 26  1  0  0  0  0
 19 27  2  0  0  0  0
 27 28  1  0  0  0  0
 28 29  2  0  0  0  0
 16 29  1  0  0  0  0
  7 30  2  0  0  0  0
  2 30  1  0  0  0  0
M  END
> <ID>
CPD_4930

$$$$
CPD_4935
  Mrv1822 09091914012D          

 35 39  0  0  0  0            999 V2000
    3.7581    2.7374    0.0000 C   0  0  0  0  0  0  0  0  0  0  0  0
    4.5153    2.4098    0.0000 C   0  0  0  0  0  0  0  0  0  0  0  0
    5.1776    2.9017    0.0000 C   0  0  0  0  0  0  0  0  0  0  0  0
    4.6101    1.5903    0.0000 O   0  0  0  0  0  0  0  0  0  0  0  0
    3.9478    1.0984    0.0000 C   0  0  0  0  0  0  0  0  0  0  0  0
    4.0426    0.2788    0.0000 C   0  0  0  0  0  0  0  0  0  0  0  0
    3.3803   -0.2130    0.0000 C   0  0  0  0  0  0  0  0  0  0  0  0
    2.6231    0.1146    0.0000 C   0  0  0  0  0  0  0  0  0  0  0  0
    2.5283    0.9341    0.0000 C   0  0  0  0  0  0  0  0  0  0  0  0
    3.1906    1.4260    0.0000 C   0  0  0  0  0  0  0  0  0  0  0  0
    1.7711    1.2618    0.0000 C   0  0  0  0  0  0  0  0  0  0  0  0
    1.1088    0.7699    0.0000 C   0  0  0  0  0  0  0  0  0  0  0  0
    0.3517    1.0975    0.0000 C   0  0  0  0  0  0  0  0  0  0  0  0
    0.2569    1.9171    0.0000 C   0  0  0  0  0  0  0  0  0  0  0  0
   -0.5519    2.0801    0.0000 N   0  0  0  0  0  0  0  0  0  0  0  0
   -0.9569    1.3614    0.0000 C   0  0  0  0  0  0  0  0  0  0  0  0
   -1.7764    1.2666    0.0000 O   0  0  0  0  0  0  0  0  0  0  0  0
   -0.3984    0.7541    0.0000 C   0  0  0  0  0  0  0  0  0  0  0  0
   -0.9375    0.1296    0.0000 O   0  0  0  0  0  0  0  0  0  0  0  0
   -0.1435   -0.0305    0.0000 C   0  0  0  0  0  0  0  0  0  0  0  0
   -0.6284   -0.6979    0.0000 C   0  0  0  0  0  0  0  0  0  0  0  0
   -1.4534   -0.6979    0.0000 C   0  0  0  0  0  0  0  0  0  0  0  0
   -0.1435   -1.3654    0.0000 N   0  0  0  0  0  0  0  0  0  0  0  0
    0.6411   -1.1104    0.0000 C   0  0  0  0  0  0  0  0  0  0  0  0
    0.6411   -0.2854    0.0000 C   0  0  0  0  0  0  0  0  0  0  0  0
    1.3556    0.1271    0.0000 C   0  0  0  0  0  0  0  0  0  0  0  0
    2.0701   -0.2854    0.0000 C   0  0  0  0  0  0  0  0  0  0  0  0
    2.0701   -1.1104    0.0000 C   0  0  0  0  0  0  0  0  0  0  0  0
    1.3556   -1.5229    0.0000 C   0  0  0  0  0  0  0  0  0  0  0  0
    0.9192    2.4090    0.0000 C   0  0  0  0  0  0  0  0  0  0  0  0
    1.6763    2.0813    0.0000 C   0  0  0  0  0  0  0  0  0  0  0  0
    4.7997   -0.0488    0.0000 C   0  0  0  0  0  0  0  0  0  0  0  0
    5.5569   -0.3764    0.0000 F   0  0  0  0  0  0  0  0  0  0  0  0
    4.4721   -0.8059    0.0000 F   0  0  0  0  0  0  0  0  0  0  0  0
    5.1274    0.7083    0.0000 F   0  0  0  0  0  0  0  0  0  0  0  0
  1  2  1  0  0  0  0
  2  3  1  0  0  0  0
  2  4  1  0  0  0  0
  4  5  1  0  0  0  0
  5  6  2  0  0  0  0
  6  7  1  0  0  0  0
  7  8  2  0  0  0  0
  8  9  1  0  0  0  0
  9 10  2  0  0  0  0
  5 10  1  0  0  0  0
  9 11  1  0  0  0  0
 11 12  2  0  0  0  0
 12 13  1  0  0  0  0
 13 14  2  0  0  0  0
 14 15  1  0  0  0  0
 15 16  1  0  0  0  0
 16 17  2  0  0  0  0
 16 18  1  0  0  0  0
 13 18  1  0  0  0  0
 18 19  1  0  0  0  0
 18 20  1  0  0  0  0
 20 21  2  0  0  0  0
 21 22  1  0  0  0  0
 21 23  1  0  0  0  0
 23 24  1  0  0  0  0
 24 25  2  0  0  0  0
 20 25  1  0  0  0  0
 25 26  1  0  0  0  0
 26 27  2  0  0  0  0
 27 28  1  0  0  0  0
 28 29  2  0  0  0  0
 24 29  1  0  0  0  0
 14 30  1  0  0  0  0
 30 31  2  0  0  0  0
 11 31  1  0  0  0  0
  6 32  1  0  0  0  0
 32 33  1  0  0  0  0
 32 34  1  0  0  0  0
 32 35  1  0  0  0  0
M  END
> <ID>
CPD_4935

$$$$
CPD_4940
  Mrv1822 09091914012D          

 18 19  0  0  0  0            999 V2000
    2.8579   -4.1250    0.0000 C   0  0  0  0  0  0  0  0  0  0  0  0
    2.1434   -3.7125    0.0000 C   0  0  0  0  0  0  0  0  0  0  0  0
    2.1434   -2.8875    0.0000 C   0  0  0  0  0  0  0  0  0  0  0  0
    2.8579   -2.4750    0.0000 C   0  0  0  0  0  0  0  0  0  0  0  0
    1.4289   -2.4750    0.0000 C   0  0  0  0  0  0  0  0  0  0  0  0
    0.7145   -2.8875    0.0000 N   0  0  0  0  0  0  0  0  0  0  0  0
    1.4289   -1.6500    0.0000 C   0  0  0  0  0  0  0  0  0  0  0  0
    0.7145   -1.2375    0.0000 C   0  0  0  0  0  0  0  0  0  0  0  0
    0.7145   -0.4125    0.0000 C   0  0  0  0  0  0  0  0  0  0  0  0
    0.0000    0.0000    0.0000 Cl  0  0  0  0  0  0  0  0  0  0  0  0
    1.4289    0.0000    0.0000 C   0  0  0  0  0  0  0  0  0  0  0  0
    1.4289    0.8250    0.0000 O   0  0  0  0  0  0  0  0  0  0  0  0
    2.1434   -0.4125    0.0000 C   0  0  0  0  0  0  0  0  0  0  0  0
    2.8579    0.0000    0.0000 N   0  0  0  0  0  0  0  0  0  0  0  0
    3.5724   -0.4125    0.0000 C   0  0  0  0  0  0  0  0  0  0  0  0
    3.5724   -1.2375    0.0000 C   0  0  0  0  0  0  0  0  0  0  0  0
    2.8579   -1.6500    0.0000 C   0  0  0  0  0  0  0  0  0  0  0  0
    2.1434   -1.2375    0.0000 C   0  0  0  0  0  0  0  0  0  0  0  0
  1  2  1  0  0  0  0
  2  3  1  0  0  0  0
  3  4  1  0  0  0  0
  3  5  1  0  0  0  0
  5  6  1  0  0  0  0
  5  7  1  0  0  0  0
  7  8  2  0  0  0  0
  8  9  1  0  0  0  0
  9 10  1  0  0  0  0
  9 11  2  0  0  0  0
 11 12  1  0  0  0  0
 11 13  1  0  0  0  0
 13 14  2  0  0  0  0
 14 15  1  0  0  0  0
 15 16  2  0  0  0  0
 16 17  1  0  0  0  0
 17 18  2  0  0  0  0
  7 18  1  0  0  0  0
 13 18  1  0  0  0  0
M  END
> <ID>
CPD_4940

$$$$
CPD_4945
  Mrv1822 09091914012D          

 29 33  0  0  0  0            999 V2000
   -0.5955    0.2595    0.0000 O   0  0  0  0  0  0  0  0  0  0  0  0
   -0.5955   -0.5655    0.0000 C   0  0  0  0  0  0  0  0  0  0  0  0
    0.1190   -0.9780    0.0000 C   0  0  0  0  0  0  0  0  0  0  0  0
    0.1190   -1.8030    0.0000 C   0  0  0  0  0  0  0  0  0  0  0  0
   -0.5955   -2.2155    0.0000 C   0  0  0  0  0  0  0  0  0  0  0  0
   -1.3099   -1.8030    0.0000 C   0  0  0  0  0  0  0  0  0  0  0  0
   -1.3099   -0.9780    0.0000 C   0  0  0  0  0  0  0  0  0  0  0  0
   -0.5955   -3.0405    0.0000 C   0  0  0  0  0  0  0  0  0  0  0  0
    0.0720   -3.5254    0.0000 N   0  0  0  0  0  0  0  0  0  0  0  0
   -0.1830   -4.3100    0.0000 N   0  0  0  0  0  0  0  0  0  0  0  0
   -1.0080   -4.3100    0.0000 C   0  0  0  0  0  0  0  0  0  0  0  0
   -1.2629   -3.5254    0.0000 N   0  0  0  0  0  0  0  0  0  0  0  0
   -1.4929   -4.9774    0.0000 C   0  0  0  0  0  0  0  0  0  0  0  0
   -1.2379   -5.7621    0.0000 C   0  0  0  0  0  0  0  0  0  0  0  0
   -0.4533   -6.0170    0.0000 N   0  0  0  0  0  0  0  0  0  0  0  0
    0.2141   -5.5321    0.0000 C   0  0  0  0  0  0  0  0  0  0  0  0
    0.8816   -6.0170    0.0000 C   0  0  0  0  0  0  0  0  0  0  0  0
    0.6266   -6.8016    0.0000 C   0  0  0  0  0  0  0  0  0  0  0  0
   -0.1984   -6.8016    0.0000 C   0  0  0  0  0  0  0  0  0  0  0  0
   -1.9054   -6.2470    0.0000 N   0  0  0  0  0  0  0  0  0  0  0  0
   -2.5728   -5.7621    0.0000 N   0  0  0  0  0  0  0  0  0  0  0  0
   -2.3179   -4.9774    0.0000 N   0  0  0  0  0  0  0  0  0  0  0  0
   -1.9054   -7.0720    0.0000 C   0  0  0  0  0  0  0  0  0  0  0  0
   -1.1909   -7.4845    0.0000 C   0  0  0  0  0  0  0  0  0  0  0  0
   -1.1909   -8.3095    0.0000 C   0  0  0  0  0  0  0  0  0  0  0  0
   -1.9054   -8.7220    0.0000 C   0  0  0  0  0  0  0  0  0  0  0  0
   -1.9054   -9.5470    0.0000 F   0  0  0  0  0  0  0  0  0  0  0  0
   -2.6198   -8.3095    0.0000 C   0  0  0  0  0  0  0  0  0  0  0  0
   -2.6198   -7.4845    0.0000 C   0  0  0  0  0  0  0  0  0  0  0  0
  1  2  1  0  0  0  0
  2  3  1  0  0  0  0
  3  4  1  0  0  0  0
  4  5  1  0  0  0  0
  5  6  1  0  0  0  0
  6  7  1  0  0  0  0
  2  7  1  0  0  0  0
  5  8  1  0  0  0  0
  8  9  2  0  0  0  0
  9 10  1  0  0  0  0
 10 11  1  0  0  0  0
 11 12  2  0  0  0  0
  8 12  1  0  0  0  0
 11 13  1  0  0  0  0
 13 14  2  0  0  0  0
 14 15  1  0  0  0  0
 15 16  1  0  0  0  0
 16 17  2  0  0  0  0
 17 18  1  0  0  0  0
 18 19  2  0  0  0  0
 15 19  1  0  0  0  0
 14 20  1  0  0  0  0
 20 21  1  0  0  0  0
 21 22  2  0  0  0  0
 13 22  1  0  0  0  0
 20 23  1  0  0  0  0
 23 24  2  0  0  0  0
 24 25  1  0  0  0  0
 25 26  2  0  0  0  0
 26 27  1  0  0  0  0
 26 28  1  0  0  0  0
 28 29  2  0  0  0  0
 23 29  1  0  0  0  0
M  END
> <ID>
CPD_4945

$$$$
CPD_4950
  Mrv1822 09091914012D          

 24 26  0  0  0  0            999 V2000
    0.1190   -0.1530    0.0000 C   0  0  0  0  0  0  0  0  0  0  0  0
    0.1190   -0.9780    0.0000 C   0  0  0  0  0  0  0  0  0  0  0  0
   -0.7060   -0.9780    0.0000 C   0  0  0  0  0  0  0  0  0  0  0  0
    0.9440   -0.9780    0.0000 C   0  0  0  0  0  0  0  0  0  0  0  0
    0.1190   -1.8030    0.0000 O   0  0  0  0  0  0  0  0  0  0  0  0
   -0.5955   -2.2155    0.0000 C   0  0  0  0  0  0  0  0  0  0  0  0
   -1.3099   -1.8030    0.0000 O   0  0  0  0  0  0  0  0  0  0  0  0
   -0.5955   -3.0405    0.0000 N   0  0  0  0  0  0  0  0  0  0  0  0
    0.0720   -3.5254    0.0000 C   0  0  0  0  0  0  0  0  0  0  0  0
   -0.1830   -4.3100    0.0000 C   0  0  0  0  0  0  0  0  0  0  0  0
   -1.0080   -4.3100    0.0000 C   0  0  0  0  0  0  0  0  0  0  0  0
   -1.2629   -3.5254    0.0000 C   0  0  0  0  0  0  0  0  0  0  0  0
   -1.4929   -4.9774    0.0000 C   0  0  0  0  0  0  0  0  0  0  0  0
   -1.2379   -5.7621    0.0000 N   0  0  0  0  0  0  0  0  0  0  0  0
   -1.9054   -6.2470    0.0000 C   0  0  0  0  0  0  0  0  0  0  0  0
   -2.5728   -5.7621    0.0000 N   0  0  0  0  0  0  0  0  0  0  0  0
   -2.3179   -4.9774    0.0000 N   0  0  0  0  0  0  0  0  0  0  0  0
   -1.9054   -7.0720    0.0000 C   0  0  0  0  0  0  0  0  0  0  0  0
   -1.1909   -7.4845    0.0000 C   0  0  0  0  0  0  0  0  0  0  0  0
   -1.1909   -8.3095    0.0000 C   0  0  0  0  0  0  0  0  0  0  0  0
   -1.9054   -8.7220    0.0000 C   0  0  0  0  0  0  0  0  0  0  0  0
   -1.9054   -9.5470    0.0000 O   0  0  0  0  0  0  0  0  0  0  0  0
   -2.6198   -8.3095    0.0000 C   0  0  0  0  0  0  0  0  0  0  0  0
   -2.6198   -7.4845    0.0000 C   0  0  0  0  0  0  0  0  0  0  0  0
  1  2  1  0  0  0  0
  2  3  1  0  0  0  0
  2  4  1  0  0  0  0
  2  5  1  0  0  0  0
  5  6  1  0  0  0  0
  6  7  2  0  0  0  0
  6  8  1  0  0  0  0
  8  9  1  0  0  0  0
  9 10  1  0  0  0  0
 10 11  1  0  0  0  0
 11 12  1  0  0  0  0
  8 12  1  0  0  0  0
 11 13  1  0  0  0  0
 13 14  2  0  0  0  0
 14 15  1  0  0  0  0
 15 16  2  0  0  0  0
 16 17  1  0  0  0  0
 13 17  1  0  0  0  0
 15 18  1  0  0  0  0
 18 19  1  0  0  0  0
 19 20  1  0  0  0  0
 20 21  1  0  0  0  0
 21 22  1  0  0  0  0
 21 23  1  0  0  0  0
 23 24  1  0  0  0  0
 18 24  1  0  0  0  0
M  END
> <ID>
CPD_4950

$$$$
CPD_4955
  Mrv1822 09091914012D          

 21 22  0  0  0  0            999 V2000
   -5.4883    8.0062    0.0000 C   0  0  0  0  0  0  0  0  0  0  0  0
   -4.6678    7.9200    0.0000 N   0  0  0  0  0  0  0  0  0  0  0  0
   -4.1829    8.5874    0.0000 C   0  0  0  0  0  0  0  0  0  0  0  0
   -4.3323    7.1663    0.0000 C   0  0  0  0  0  0  0  0  0  0  0  0
   -3.5118    7.0800    0.0000 C   0  0  0  0  0  0  0  0  0  0  0  0
   -3.1762    6.3264    0.0000 C   0  0  0  0  0  0  0  0  0  0  0  0
   -3.6611    5.6589    0.0000 C   0  0  0  0  0  0  0  0  0  0  0  0
   -4.4816    5.7452    0.0000 C   0  0  0  0  0  0  0  0  0  0  0  0
   -4.8172    6.4988    0.0000 C   0  0  0  0  0  0  0  0  0  0  0  0
   -3.3256    4.9053    0.0000 C   0  0  0  0  0  0  0  0  0  0  0  0
   -2.5186    4.7337    0.0000 N   0  0  0  0  0  0  0  0  0  0  0  0
   -2.4324    3.9132    0.0000 C   0  0  0  0  0  0  0  0  0  0  0  0
   -1.7179    3.5007    0.0000 C   0  0  0  0  0  0  0  0  0  0  0  0
   -1.0034    3.9132    0.0000 C   0  0  0  0  0  0  0  0  0  0  0  0
   -0.2890    3.5007    0.0000 O   0  0  0  0  0  0  0  0  0  0  0  0
    0.4255    3.9132    0.0000 C   0  0  0  0  0  0  0  0  0  0  0  0
    1.1400    3.5007    0.0000 C   0  0  0  0  0  0  0  0  0  0  0  0
    1.8545    3.9132    0.0000 C   0  0  0  0  0  0  0  0  0  0  0  0
    2.5689    4.3257    0.0000 N   0  0  0  0  0  0  0  0  0  0  0  0
   -3.1860    3.5777    0.0000 N   0  0  0  0  0  0  0  0  0  0  0  0
   -3.7381    4.1908    0.0000 N   0  0  0  0  0  0  0  0  0  0  0  0
  1  2  1  0  0  0  0
  2  3  1  0  0  0  0
  2  4  1  0  0  0  0
  4  5  2  0  0  0  0
  5  6  1  0  0  0  0
  6  7  2  0  0  0  0
  7  8  1  0  0  0  0
  8  9  2  0  0  0  0
  4  9  1  0  0  0  0
  7 10  1  0  0  0  0
 10 11  2  0  0  0  0
 11 12  1  0  0  0  0
 12 13  1  0  0  0  0
 13 14  1  0  0  0  0
 14 15  1  0  0  0  0
 15 16  1  0  0  0  0
 16 17  1  0  0  0  0
 17 18  1  0  0  0  0
 18 19  3  0  0  0  0
 12 20  2  0  0  0  0
 20 21  1  0  0  0  0
 10 21  1  0  0  0  0
M  END
> <ID>
CPD_4955

$$$$
CPD_4960
  Mrv1822 09091914012D          

 21 23  0  0  0  0            999 V2000
   -0.9851   -3.2777    0.0000 C   0  0  0  0  0  0  0  0  0  0  0  0
   -0.1781   -3.1062    0.0000 C   0  0  0  0  0  0  0  0  0  0  0  0
    0.0768   -2.3215    0.0000 C   0  0  0  0  0  0  0  0  0  0  0  0
    0.8838   -2.1500    0.0000 C   0  0  0  0  0  0  0  0  0  0  0  0
    1.1387   -1.3654    0.0000 N   0  0  0  0  0  0  0  0  0  0  0  0
    0.6538   -0.6979    0.0000 N   0  0  0  0  0  0  0  0  0  0  0  0
    1.1387   -0.0305    0.0000 N   0  0  0  0  0  0  0  0  0  0  0  0
    1.9233   -0.2854    0.0000 C   0  0  0  0  0  0  0  0  0  0  0  0
    2.6378    0.1271    0.0000 C   0  0  0  0  0  0  0  0  0  0  0  0
    3.3523   -0.2854    0.0000 C   0  0  0  0  0  0  0  0  0  0  0  0
    4.0668    0.1271    0.0000 C   0  0  0  0  0  0  0  0  0  0  0  0
    4.1530    0.9475    0.0000 C   0  0  0  0  0  0  0  0  0  0  0  0
    4.9600    1.1191    0.0000 C   0  0  0  0  0  0  0  0  0  0  0  0
    5.2955    1.8727    0.0000 C   0  0  0  0  0  0  0  0  0  0  0  0
    4.8106    2.5402    0.0000 O   0  0  0  0  0  0  0  0  0  0  0  0
    5.3725    0.4046    0.0000 C   0  0  0  0  0  0  0  0  0  0  0  0
    4.8204   -0.2085    0.0000 S   0  0  0  0  0  0  0  0  0  0  0  0
    3.3523   -1.1104    0.0000 C   0  0  0  0  0  0  0  0  0  0  0  0
    4.0668   -1.5229    0.0000 F   0  0  0  0  0  0  0  0  0  0  0  0
    2.6378   -1.5229    0.0000 C   0  0  0  0  0  0  0  0  0  0  0  0
    1.9233   -1.1104    0.0000 C   0  0  0  0  0  0  0  0  0  0  0  0
  1  2  1  0  0  0  0
  2  3  1  0  0  0  0
  3  4  1  0  0  0  0
  4  5  1  0  0  0  0
  5  6  1  0  0  0  0
  6  7  2  0  0  0  0
  7  8  1  0  0  0  0
  8  9  2  0  0  0  0
  9 10  1  0  0  0  0
 10 11  1  0  0  0  0
 11 12  2  0  0  0  0
 12 13  1  0  0  0  0
 13 14  1  0  0  0  0
 14 15  1  0  0  0  0
 13 16  2  0  0  0  0
 16 17  1  0  0  0  0
 11 17  1  0  0  0  0
 10 18  2  0  0  0  0
 18 19  1  0  0  0  0
 18 20  1  0  0  0  0
 20 21  2  0  0  0  0
  5 21  1  0  0  0  0
  8 21  1  0  0  0  0
M  END
> <ID>
CPD_4960

$$$$
CPD_4965
  Mrv1822 09091914012D          

 27 30  0  0  0  0            999 V2000
    0.8838   -2.1500    0.0000 C   0  0  0  0  0  0  0  0  0  0  0  0
    1.1387   -1.3654    0.0000 C   0  0  0  0  0  0  0  0  0  0  0  0
    0.6538   -0.6979    0.0000 N   0  0  0  0  0  0  0  0  0  0  0  0
    1.1387   -0.0305    0.0000 N   0  0  0  0  0  0  0  0  0  0  0  0
    1.9233   -0.2854    0.0000 C   0  0  0  0  0  0  0  0  0  0  0  0
    2.6378    0.1271    0.0000 C   0  0  0  0  0  0  0  0  0  0  0  0
    3.3523   -0.2854    0.0000 C   0  0  0  0  0  0  0  0  0  0  0  0
    3.3523   -1.1104    0.0000 C   0  0  0  0  0  0  0  0  0  0  0  0
    2.6378   -1.5229    0.0000 C   0  0  0  0  0  0  0  0  0  0  0  0
    1.9233   -1.1104    0.0000 N   0  0  0  0  0  0  0  0  0  0  0  0
    4.0668   -1.5229    0.0000 S   0  0  0  0  0  0  0  0  0  0  0  0
    3.6543   -2.2374    0.0000 O   0  0  0  0  0  0  0  0  0  0  0  0
    4.4793   -0.8085    0.0000 O   0  0  0  0  0  0  0  0  0  0  0  0
    4.7812   -1.9354    0.0000 N   0  0  0  0  0  0  0  0  0  0  0  0
    4.7812   -2.7604    0.0000 C   0  0  0  0  0  0  0  0  0  0  0  0
    5.4957   -3.1729    0.0000 C   0  0  0  0  0  0  0  0  0  0  0  0
    5.4957   -3.9979    0.0000 C   0  0  0  0  0  0  0  0  0  0  0  0
    4.7812   -4.4104    0.0000 C   0  0  0  0  0  0  0  0  0  0  0  0
    4.0668   -3.9979    0.0000 C   0  0  0  0  0  0  0  0  0  0  0  0
    4.0668   -3.1729    0.0000 C   0  0  0  0  0  0  0  0  0  0  0  0
    4.7812   -5.2354    0.0000 C   0  0  0  0  0  0  0  0  0  0  0  0
    5.4487   -5.7204    0.0000 C   0  0  0  0  0  0  0  0  0  0  0  0
    5.1937   -6.5050    0.0000 C   0  0  0  0  0  0  0  0  0  0  0  0
    5.6786   -7.1724    0.0000 C   0  0  0  0  0  0  0  0  0  0  0  0
    6.4991   -7.0862    0.0000 O   0  0  0  0  0  0  0  0  0  0  0  0
    4.3687   -6.5050    0.0000 C   0  0  0  0  0  0  0  0  0  0  0  0
    4.1138   -5.7204    0.0000 S   0  0  0  0  0  0  0  0  0  0  0  0
  1  2  1  0  0  0  0
  2  3  2  0  0  0  0
  3  4  1  0  0  0  0
  4  5  2  0  0  0  0
  5  6  1  0  0  0  0
  6  7  2  0  0  0  0
  7  8  1  0  0  0  0
  8  9  2  0  0  0  0
  9 10  1  0  0  0  0
  2 10  1  0  0  0  0
  5 10  1  0  0  0  0
  8 11  1  0  0  0  0
 11 12  2  0  0  0  0
 11 13  2  0  0  0  0
 11 14  1  0  0  0  0
 14 15  1  0  0  0  0
 15 16  2  0  0  0  0
 16 17  1  0  0  0  0
 17 18  2  0  0  0  0
 18 19  1  0  0  0  0
 19 20  2  0  0  0  0
 15 20  1  0  0  0  0
 18 21  1  0  0  0  0
 21 22  2  0  0  0  0
 22 23  1  0  0  0  0
 23 24  1  0  0  0  0
 24 25  1  0  0  0  0
 23 26  2  0  0  0  0
 26 27  1  0  0  0  0
 21 27  1  0  0  0  0
M  END
> <ID>
CPD_4965

$$$$
CPD_4970
  Mrv1822 09091914012D          

 29 33  0  0  0  0            999 V2000
   -7.2801   -4.4597    0.0000 O   0  0  0  0  0  0  0  0  0  0  0  0
   -6.4731   -4.6312    0.0000 C   0  0  0  0  0  0  0  0  0  0  0  0
   -5.9211   -4.0181    0.0000 C   0  0  0  0  0  0  0  0  0  0  0  0
   -6.0926   -3.2112    0.0000 C   0  0  0  0  0  0  0  0  0  0  0  0
   -5.3781   -2.7987    0.0000 S   0  0  0  0  0  0  0  0  0  0  0  0
   -4.7650   -3.3507    0.0000 C   0  0  0  0  0  0  0  0  0  0  0  0
   -5.1006   -4.1044    0.0000 C   0  0  0  0  0  0  0  0  0  0  0  0
   -3.9580   -3.1792    0.0000 C   0  0  0  0  0  0  0  0  0  0  0  0
   -3.7031   -2.3945    0.0000 C   0  0  0  0  0  0  0  0  0  0  0  0
   -2.8961   -2.2230    0.0000 C   0  0  0  0  0  0  0  0  0  0  0  0
   -2.3441   -2.8361    0.0000 C   0  0  0  0  0  0  0  0  0  0  0  0
   -2.5990   -3.6207    0.0000 C   0  0  0  0  0  0  0  0  0  0  0  0
   -3.4060   -3.7923    0.0000 C   0  0  0  0  0  0  0  0  0  0  0  0
   -1.5371   -2.6646    0.0000 N   0  0  0  0  0  0  0  0  0  0  0  0
   -1.2822   -1.8800    0.0000 C   0  0  0  0  0  0  0  0  0  0  0  0
   -0.4752   -1.7084    0.0000 C   0  0  0  0  0  0  0  0  0  0  0  0
    0.0768   -2.3215    0.0000 N   0  0  0  0  0  0  0  0  0  0  0  0
    0.8838   -2.1500    0.0000 C   0  0  0  0  0  0  0  0  0  0  0  0
    1.1387   -1.3654    0.0000 C   0  0  0  0  0  0  0  0  0  0  0  0
    0.6538   -0.6979    0.0000 C   0  0  0  0  0  0  0  0  0  0  0  0
    1.1387   -0.0305    0.0000 N   0  0  0  0  0  0  0  0  0  0  0  0
    1.9233   -0.2854    0.0000 C   0  0  0  0  0  0  0  0  0  0  0  0
    2.6378    0.1271    0.0000 N   0  0  0  0  0  0  0  0  0  0  0  0
    3.3523   -0.2854    0.0000 C   0  0  0  0  0  0  0  0  0  0  0  0
    3.3523   -1.1104    0.0000 C   0  0  0  0  0  0  0  0  0  0  0  0
    2.6378   -1.5229    0.0000 C   0  0  0  0  0  0  0  0  0  0  0  0
    1.9233   -1.1104    0.0000 C   0  0  0  0  0  0  0  0  0  0  0  0
   -0.1781   -3.1062    0.0000 C   0  0  0  0  0  0  0  0  0  0  0  0
   -0.9851   -3.2777    0.0000 C   0  0  0  0  0  0  0  0  0  0  0  0
  1  2  1  0  0  0  0
  2  3  1  0  0  0  0
  3  4  2  0  0  0  0
  4  5  1  0  0  0  0
  5  6  1  0  0  0  0
  6  7  2  0  0  0  0
  3  7  1  0  0  0  0
  6  8  1  0  0  0  0
  8  9  2  0  0  0  0
  9 10  1  0  0  0  0
 10 11  2  0  0  0  0
 11 12  1  0  0  0  0
 12 13  2  0  0  0  0
  8 13  1  0  0  0  0
 11 14  1  0  0  0  0
 14 15  1  0  0  0  0
 15 16  1  0  0  0  0
 16 17  1  0  0  0  0
 17 18  1  0  0  0  0
 18 19  1  0  0  0  0
 19 20  2  0  0  0  0
 20 21  1  0  0  0  0
 21 22  2  0  0  0  0
 22 23  1  0  0  0  0
 23 24  2  0  0  0  0
 24 25  1  0  0  0  0
 25 26  2  0  0  0  0
 26 27  1  0  0  0  0
 19 27  1  0  0  0  0
 22 27  1  0  0  0  0
 17 28  1  0  0  0  0
 28 29  1  0  0  0  0
 14 29  1  0  0  0  0
M  END
> <ID>
CPD_4970

$$$$
CPD_4975
  Mrv1822 09091914012D          

 27 28  0  0  0  0            999 V2000
   -2.6835   -5.5639    0.0000 C   0  0  0  0  0  0  0  0  0  0  0  0
   -2.1434   -6.1875    0.0000 O   0  0  0  0  0  0  0  0  0  0  0  0
   -1.3333   -6.0316    0.0000 C   0  0  0  0  0  0  0  0  0  0  0  0
   -1.0632   -5.2520    0.0000 O   0  0  0  0  0  0  0  0  0  0  0  0
   -0.7932   -6.6552    0.0000 C   0  0  0  0  0  0  0  0  0  0  0  0
    0.0169   -6.4993    0.0000 C   0  0  0  0  0  0  0  0  0  0  0  0
    0.5570   -7.1230    0.0000 C   0  0  0  0  0  0  0  0  0  0  0  0
    1.3672   -6.9671    0.0000 N   0  0  0  0  0  0  0  0  0  0  0  0
    1.9073   -7.5907    0.0000 C   0  0  0  0  0  0  0  0  0  0  0  0
    2.7174   -7.4348    0.0000 C   0  0  0  0  0  0  0  0  0  0  0  0
    3.2575   -8.0584    0.0000 C   0  0  0  0  0  0  0  0  0  0  0  0
    2.9874   -8.8380    0.0000 C   0  0  0  0  0  0  0  0  0  0  0  0
    2.1773   -8.9939    0.0000 C   0  0  0  0  0  0  0  0  0  0  0  0
    1.6372   -8.3702    0.0000 C   0  0  0  0  0  0  0  0  0  0  0  0
    4.0676   -7.9025    0.0000 C   0  0  0  0  0  0  0  0  0  0  0  0
    4.3377   -7.1230    0.0000 C   0  0  0  0  0  0  0  0  0  0  0  0
    3.7976   -6.4993    0.0000 O   0  0  0  0  0  0  0  0  0  0  0  0
    2.9874   -6.6552    0.0000 C   0  0  0  0  0  0  0  0  0  0  0  0
    5.1478   -6.9671    0.0000 C   0  0  0  0  0  0  0  0  0  0  0  0
    5.6879   -7.5907    0.0000 C   0  0  0  0  0  0  0  0  0  0  0  0
    5.4178   -8.3702    0.0000 C   0  0  0  0  0  0  0  0  0  0  0  0
    5.9579   -8.9939    0.0000 N   0  0  0  0  0  0  0  0  0  0  0  0
    4.6077   -8.5262    0.0000 C   0  0  0  0  0  0  0  0  0  0  0  0
    1.6372   -6.1875    0.0000 S   0  0  0  0  0  0  0  0  0  0  0  0
    2.4168   -6.4575    0.0000 C   0  0  0  0  0  0  0  0  0  0  0  0
    0.8577   -5.9175    0.0000 O   0  0  0  0  0  0  0  0  0  0  0  0
    1.9073   -5.4079    0.0000 O   0  0  0  0  0  0  0  0  0  0  0  0
  1  2  1  0  0  0  0
  2  3  1  0  0  0  0
  3  4  2  0  0  0  0
  3  5  1  0  0  0  0
  5  6  1  0  0  0  0
  6  7  1  0  0  0  0
  7  8  1  0  0  0  0
  8  9  1  0  0  0  0
  9 10  2  0  0  0  0
 10 11  1  0  0  0  0
 11 12  2  0  0  0  0
 12 13  1  0  0  0  0
 13 14  2  0  0  0  0
  9 14  1  0  0  0  0
 11 15  1  0  0  0  0
 15 16  2  0  0  0  0
 16 17  1  0  0  0  0
 17 18  1  0  0  0  0
 16 19  1  0  0  0  0
 19 20  2  0  0  0  0
 20 21  1  0  0  0  0
 21 22  1  0  0  0  0
 21 23  2  0  0  0  0
 15 23  1  0  0  0  0
  8 24  1  0  0  0  0
 24 25  1  0  0  0  0
 24 26  2  0  0  0  0
 24 27  2  0  0  0  0
M  END
> <ID>
CPD_4975

$$$$
CPD_4980
  Mrv1822 09091914012D          

 32 34  0  0  0  0            999 V2000
   -2.1434   -0.4125    0.0000 C   0  0  0  0  0  0  0  0  0  0  0  0
   -1.4289   -0.8250    0.0000 C   0  0  0  0  0  0  0  0  0  0  0  0
   -0.7145   -0.4125    0.0000 C   0  0  0  0  0  0  0  0  0  0  0  0
   -0.0000   -0.8250    0.0000 C   0  0  0  0  0  0  0  0  0  0  0  0
    0.7145   -0.4125    0.0000 O   0  0  0  0  0  0  0  0  0  0  0  0
    1.4289   -0.8250    0.0000 C   0  0  0  0  0  0  0  0  0  0  0  0
    2.1434   -0.4125    0.0000 C   0  0  0  0  0  0  0  0  0  0  0  0
    2.8579   -0.8250    0.0000 C   0  0  0  0  0  0  0  0  0  0  0  0
    2.8579   -1.6500    0.0000 C   0  0  0  0  0  0  0  0  0  0  0  0
    2.1434   -2.0625    0.0000 C   0  0  0  0  0  0  0  0  0  0  0  0
    1.4289   -1.6500    0.0000 C   0  0  0  0  0  0  0  0  0  0  0  0
    2.1434   -2.8875    0.0000 C   0  0  0  0  0  0  0  0  0  0  0  0
    1.4289   -3.3000    0.0000 O   0  0  0  0  0  0  0  0  0  0  0  0
    2.8579   -3.3000    0.0000 O   0  0  0  0  0  0  0  0  0  0  0  0
    2.8579   -4.1250    0.0000 C   0  0  0  0  0  0  0  0  0  0  0  0
    2.1434    0.4125    0.0000 C   0  0  0  0  0  0  0  0  0  0  0  0
    1.4289    0.8250    0.0000 C   0  0  0  0  0  0  0  0  0  0  0  0
    0.7145    0.4125    0.0000 C   0  0  0  0  0  0  0  0  0  0  0  0
   -0.0000    0.8250    0.0000 N   0  0  0  0  0  0  0  0  0  0  0  0
   -0.7145    0.4125    0.0000 C   0  0  0  0  0  0  0  0  0  0  0  0
   -1.4289    0.8250    0.0000 C   0  0  0  0  0  0  0  0  0  0  0  0
   -1.4289    1.6500    0.0000 C   0  0  0  0  0  0  0  0  0  0  0  0
   -0.7145    2.0625    0.0000 C   0  0  0  0  0  0  0  0  0  0  0  0
   -0.0000    1.6500    0.0000 C   0  0  0  0  0  0  0  0  0  0  0  0
   -2.1434    2.0625    0.0000 C   0  0  0  0  0  0  0  0  0  0  0  0
   -2.1434    2.8875    0.0000 O   0  0  0  0  0  0  0  0  0  0  0  0
   -2.8579    1.6500    0.0000 O   0  0  0  0  0  0  0  0  0  0  0  0
    1.4289    1.6500    0.0000 C   0  0  0  0  0  0  0  0  0  0  0  0
    0.7145    2.0625    0.0000 Cl  0  0  0  0  0  0  0  0  0  0  0  0
    2.1434    2.0625    0.0000 C   0  0  0  0  0  0  0  0  0  0  0  0
    2.8579    1.6500    0.0000 C   0  0  0  0  0  0  0  0  0  0  0  0
    2.8579    0.8250    0.0000 C   0  0  0  0  0  0  0  0  0  0  0  0
  1  2  1  0  0  0  0
  2  3  1  0  0  0  0
  3  4  1  0  0  0  0
  4  5  1  0  0  0  0
  5  6  1  0  0  0  0
  6  7  2  0  0  0  0
  7  8  1  0  0  0  0
  8  9  2  0  0  0  0
  9 10  1  0  0  0  0
 10 11  2  0  0  0  0
  6 11  1  0  0  0  0
 10 12  1  0  0  0  0
 12 13  2  0  0  0  0
 12 14  1  0  0  0  0
 14 15  1  0  0  0  0
  7 16  1  0  0  0  0
 16 17  2  0  0  0  0
 17 18  1  0  0  0  0
 18 19  1  0  0  0  0
 19 20  1  0  0  0  0
 20 21  1  0  0  0  0
 21 22  1  0  0  0  0
 22 23  1  0  0  0  0
 23 24  1  0  0  0  0
 19 24  1  0  0  0  0
 22 25  1  0  0  0  0
 25 26  1  0  0  0  0
 25 27  2  0  0  0  0
 17 28  1  0  0  0  0
 28 29  1  0  0  0  0
 28 30  2  0  0  0  0
 30 31  1  0  0  0  0
 31 32  2  0  0  0  0
 16 32  1  0  0  0  0
M  END
> <ID>
CPD_4980

$$$$
CPD_4985
  Mrv1822 09091914012D          

 34 36  0  0  0  0            999 V2000
    4.2868   -2.4750    0.0000 C   0  0  0  0  0  0  0  0  0  0  0  0
    4.2868   -3.3000    0.0000 C   0  0  0  0  0  0  0  0  0  0  0  0
    5.0013   -3.7125    0.0000 C   0  0  0  0  0  0  0  0  0  0  0  0
    5.0013   -4.5375    0.0000 C   0  0  0  0  0  0  0  0  0  0  0  0
    4.2868   -4.9500    0.0000 C   0  0  0  0  0  0  0  0  0  0  0  0
    3.5724   -4.5375    0.0000 C   0  0  0  0  0  0  0  0  0  0  0  0
    2.8579   -4.9500    0.0000 N   0  0  0  0  0  0  0  0  0  0  0  0
    2.1434   -4.5375    0.0000 C   0  0  0  0  0  0  0  0  0  0  0  0
    2.1434   -3.7125    0.0000 O   0  0  0  0  0  0  0  0  0  0  0  0
    1.4289   -4.9500    0.0000 O   0  0  0  0  0  0  0  0  0  0  0  0
    0.7145   -4.5375    0.0000 C   0  0  0  0  0  0  0  0  0  0  0  0
    0.0000   -4.1250    0.0000 C   0  0  0  0  0  0  0  0  0  0  0  0
    0.3020   -5.2520    0.0000 C   0  0  0  0  0  0  0  0  0  0  0  0
    1.1270   -3.8230    0.0000 C   0  0  0  0  0  0  0  0  0  0  0  0
    3.5724   -3.7125    0.0000 C   0  0  0  0  0  0  0  0  0  0  0  0
    5.7158   -3.3000    0.0000 C   0  0  0  0  0  0  0  0  0  0  0  0
    5.7158   -2.4750    0.0000 C   0  0  0  0  0  0  0  0  0  0  0  0
    6.4302   -2.0625    0.0000 C   0  0  0  0  0  0  0  0  0  0  0  0
    7.1447   -2.4750    0.0000 C   0  0  0  0  0  0  0  0  0  0  0  0
    7.8592   -2.0625    0.0000 C   0  0  0  0  0  0  0  0  0  0  0  0
    8.5737   -2.4750    0.0000 S   0  0  0  0  0  0  0  0  0  0  0  0
    8.1612   -3.1895    0.0000 O   0  0  0  0  0  0  0  0  0  0  0  0
    8.9862   -1.7605    0.0000 O   0  0  0  0  0  0  0  0  0  0  0  0
    9.2881   -2.8875    0.0000 N   0  0  0  0  0  0  0  0  0  0  0  0
   10.0026   -2.4750    0.0000 C   0  0  0  0  0  0  0  0  0  0  0  0
   10.7171   -2.8875    0.0000 C   0  0  0  0  0  0  0  0  0  0  0  0
   10.7171   -3.7125    0.0000 C   0  0  0  0  0  0  0  0  0  0  0  0
   10.0026   -4.1250    0.0000 C   0  0  0  0  0  0  0  0  0  0  0  0
    9.2881   -3.7125    0.0000 C   0  0  0  0  0  0  0  0  0  0  0  0
   11.4315   -4.1250    0.0000 C   0  0  0  0  0  0  0  0  0  0  0  0
   12.1460   -3.7125    0.0000 O   0  0  0  0  0  0  0  0  0  0  0  0
   11.4315   -4.9500    0.0000 O   0  0  0  0  0  0  0  0  0  0  0  0
    7.1447   -3.3000    0.0000 C   0  0  0  0  0  0  0  0  0  0  0  0
    6.4302   -3.7125    0.0000 C   0  0  0  0  0  0  0  0  0  0  0  0
  1  2  1  0  0  0  0
  2  3  2  0  0  0  0
  3  4  1  0  0  0  0
  4  5  2  0  0  0  0
  5  6  1  0  0  0  0
  6  7  1  0  0  0  0
  7  8  1  0  0  0  0
  8  9  2  0  0  0  0
  8 10  1  0  0  0  0
 10 11  1  0  0  0  0
 11 12  1  0  0  0  0
 11 13  1  0  0  0  0
 11 14  1  0  0  0  0
  6 15  2  0  0  0  0
  2 15  1  0  0  0  0
  3 16  1  0  0  0  0
 16 17  2  0  0  0  0
 17 18  1  0  0  0  0
 18 19  2  0  0  0  0
 19 20  1  0  0  0  0
 20 21  1  0  0  0  0
 21 22  2  0  0  0  0
 21 23  2  0  0  0  0
 21 24  1  0  0  0  0
 24 25  1  0  0  0  0
 25 26  1  0  0  0  0
 26 27  1  0  0  0  0
 27 28  1  0  0  0  0
 28 29  1  0  0  0  0
 24 29  1  0  0  0  0
 27 30  1  0  0  0  0
 30 31  1  0  0  0  0
 30 32  2  0  0  0  0
 19 33  1  0  0  0  0
 33 34  2  0  0  0  0
 16 34  1  0  0  0  0
M  END
> <ID>
CPD_4985

$$$$
CPD_4990
  Mrv1822 09091914012D          

 28 29  0  0  0  0            999 V2000
    0.0000    0.0000    0.0000 C   0  0  0  0  0  0  0  0  0  0  0  0
    0.7145   -0.4125    0.0000 O   0  0  0  0  0  0  0  0  0  0  0  0
    0.7145   -1.2375    0.0000 C   0  0  0  0  0  0  0  0  0  0  0  0
    1.4289   -1.6500    0.0000 C   0  0  0  0  0  0  0  0  0  0  0  0
    1.4289   -2.4750    0.0000 C   0  0  0  0  0  0  0  0  0  0  0  0
    2.1434   -2.8875    0.0000 F   0  0  0  0  0  0  0  0  0  0  0  0
    0.7145   -2.8875    0.0000 C   0  0  0  0  0  0  0  0  0  0  0  0
    0.0000   -2.4750    0.0000 C   0  0  0  0  0  0  0  0  0  0  0  0
   -0.7145   -2.8875    0.0000 O   0  0  0  0  0  0  0  0  0  0  0  0
   -1.4289   -2.4750    0.0000 C   0  0  0  0  0  0  0  0  0  0  0  0
    0.0000   -1.6500    0.0000 C   0  0  0  0  0  0  0  0  0  0  0  0
    0.7145   -3.7125    0.0000 C   0  0  0  0  0  0  0  0  0  0  0  0
    1.4289   -4.1250    0.0000 C   0  0  0  0  0  0  0  0  0  0  0  0
    1.4289   -4.9500    0.0000 C   0  0  0  0  0  0  0  0  0  0  0  0
    0.7145   -5.3625    0.0000 C   0  0  0  0  0  0  0  0  0  0  0  0
   -0.0000   -4.9500    0.0000 C   0  0  0  0  0  0  0  0  0  0  0  0
    0.0000   -4.1250    0.0000 C   0  0  0  0  0  0  0  0  0  0  0  0
   -0.7145   -5.3625    0.0000 N   0  0  0  0  0  0  0  0  0  0  0  0
   -0.7145   -6.1875    0.0000 C   0  0  0  0  0  0  0  0  0  0  0  0
   -1.4289   -6.6000    0.0000 C   0  0  0  0  0  0  0  0  0  0  0  0
   -1.4289   -7.4250    0.0000 C   0  0  0  0  0  0  0  0  0  0  0  0
   -2.1434   -7.8375    0.0000 C   0  0  0  0  0  0  0  0  0  0  0  0
   -2.1434   -8.6625    0.0000 O   0  0  0  0  0  0  0  0  0  0  0  0
   -2.8579   -7.4250    0.0000 O   0  0  0  0  0  0  0  0  0  0  0  0
   -1.4289   -4.9500    0.0000 S   0  0  0  0  0  0  0  0  0  0  0  0
   -2.1434   -4.5375    0.0000 C   0  0  0  0  0  0  0  0  0  0  0  0
   -1.8414   -5.6645    0.0000 O   0  0  0  0  0  0  0  0  0  0  0  0
   -1.0164   -4.2355    0.0000 O   0  0  0  0  0  0  0  0  0  0  0  0
  1  2  1  0  0  0  0
  2  3  1  0  0  0  0
  3  4  2  0  0  0  0
  4  5  1  0  0  0  0
  5  6  1  0  0  0  0
  5  7  2  0  0  0  0
  7  8  1  0  0  0  0
  8  9  1  0  0  0  0
  9 10  1  0  0  0  0
  8 11  2  0  0  0  0
  3 11  1  0  0  0  0
  7 12  1  0  0  0  0
 12 13  2  0  0  0  0
 13 14  1  0  0  0  0
 14 15  2  0  0  0  0
 15 16  1  0  0  0  0
 16 17  2  0  0  0  0
 12 17  1  0  0  0  0
 16 18  1  0  0  0  0
 18 19  1  0  0  0  0
 19 20  1  0  0  0  0
 20 21  1  0  0  0  0
 21 22  1  0  0  0  0
 22 23  1  0  0  0  0
 22 24  2  0  0  0  0
 18 25  1  0  0  0  0
 25 26  1  0  0  0  0
 25 27  2  0  0  0  0
 25 28  2  0  0  0  0
M  END
> <ID>
CPD_4990

$$$$
CPD_4995
  Mrv1822 09091914012D          

 36 39  0  0  0  0            999 V2000
   -1.9862   -0.6240    0.0000 C   0  0  0  0  0  0  0  0  0  0  0  0
   -2.7006   -0.2115    0.0000 S   0  0  0  0  0  0  0  0  0  0  0  0
   -3.4151    0.2010    0.0000 O   0  0  0  0  0  0  0  0  0  0  0  0
   -2.2881    0.5030    0.0000 O   0  0  0  0  0  0  0  0  0  0  0  0
   -3.1131   -0.9259    0.0000 N   0  0  0  0  0  0  0  0  0  0  0  0
   -2.7006   -1.6404    0.0000 C   0  0  0  0  0  0  0  0  0  0  0  0
   -1.8756   -1.6404    0.0000 C   0  0  0  0  0  0  0  0  0  0  0  0
   -1.4631   -0.9259    0.0000 C   0  0  0  0  0  0  0  0  0  0  0  0
   -0.6381   -0.9259    0.0000 C   0  0  0  0  0  0  0  0  0  0  0  0
   -0.2256   -0.2115    0.0000 O   0  0  0  0  0  0  0  0  0  0  0  0
   -0.2256   -1.6404    0.0000 O   0  0  0  0  0  0  0  0  0  0  0  0
   -3.9381   -0.9259    0.0000 C   0  0  0  0  0  0  0  0  0  0  0  0
   -4.3506   -0.2115    0.0000 C   0  0  0  0  0  0  0  0  0  0  0  0
   -5.1756   -0.2115    0.0000 C   0  0  0  0  0  0  0  0  0  0  0  0
   -5.5881   -0.9259    0.0000 C   0  0  0  0  0  0  0  0  0  0  0  0
   -5.1756   -1.6404    0.0000 C   0  0  0  0  0  0  0  0  0  0  0  0
   -4.3506   -1.6404    0.0000 C   0  0  0  0  0  0  0  0  0  0  0  0
   -5.5881    0.5030    0.0000 C   0  0  0  0  0  0  0  0  0  0  0  0
   -6.4131    0.5030    0.0000 C   0  0  0  0  0  0  0  0  0  0  0  0
   -6.8256    1.2175    0.0000 C   0  0  0  0  0  0  0  0  0  0  0  0
   -6.4131    1.9320    0.0000 C   0  0  0  0  0  0  0  0  0  0  0  0
   -6.8256    2.6464    0.0000 Cl  0  0  0  0  0  0  0  0  0  0  0  0
   -5.5881    1.9320    0.0000 C   0  0  0  0  0  0  0  0  0  0  0  0
   -5.1756    1.2175    0.0000 C   0  0  0  0  0  0  0  0  0  0  0  0
   -6.8256   -0.2115    0.0000 C   0  0  0  0  0  0  0  0  0  0  0  0
   -6.3609   -0.8931    0.0000 C   0  0  0  0  0  0  0  0  0  0  0  0
   -6.6041   -1.6815    0.0000 C   0  0  0  0  0  0  0  0  0  0  0  0
   -5.9993   -2.2426    0.0000 O   0  0  0  0  0  0  0  0  0  0  0  0
   -7.3721   -1.9829    0.0000 N   0  0  0  0  0  0  0  0  0  0  0  0
   -8.0865   -1.5704    0.0000 C   0  0  0  0  0  0  0  0  0  0  0  0
   -8.7315   -2.0847    0.0000 C   0  0  0  0  0  0  0  0  0  0  0  0
   -9.4995   -1.7833    0.0000 C   0  0  0  0  0  0  0  0  0  0  0  0
   -9.6225   -0.9675    0.0000 C   0  0  0  0  0  0  0  0  0  0  0  0
   -8.9775   -0.4532    0.0000 C   0  0  0  0  0  0  0  0  0  0  0  0
   -8.2095   -0.7546    0.0000 C   0  0  0  0  0  0  0  0  0  0  0  0
   -7.6483   -0.1498    0.0000 S   0  0  0  0  0  0  0  0  0  0  0  0
  1  2  1  0  0  0  0
  2  3  2  0  0  0  0
  2  4  2  0  0  0  0
  2  5  1  0  0  0  0
  5  6  1  0  0  0  0
  6  7  1  0  0  0  0
  7  8  1  0  0  0  0
  8  9  1  0  0  0  0
  9 10  1  0  0  0  0
  9 11  2  0  0  0  0
  5 12  1  0  0  0  0
 12 13  2  0  0  0  0
 13 14  1  0  0  0  0
 14 15  2  0  0  0  0
 15 16  1  0  0  0  0
 16 17  2  0  0  0  0
 12 17  1  0  0  0  0
 14 18  1  0  0  0  0
 18 19  2  0  0  0  0
 19 20  1  0  0  0  0
 20 21  2  0  0  0  0
 21 22  1  0  0  0  0
 21 23  1  0  0  0  0
 23 24  2  0  0  0  0
 18 24  1  0  0  0  0
 19 25  1  0  0  0  0
 25 26  1  0  0  0  0
 26 27  1  0  0  0  0
 27 28  2  0  0  0  0
 27 29  1  0  0  0  0
 29 30  1  0  0  0  0
 30 31  2  0  0  0  0
 31 32  1  0  0  0  0
 32 33  2  0  0  0  0
 33 34  1  0  0  0  0
 34 35  2  0  0  0  0
 30 35  1  0  0  0  0
 35 36  1  0  0  0  0
 25 36  1  0  0  0  0
M  END
> <ID>
CPD_4995

$$$$
CPD_5000
  Mrv1822 09091914012D          

 28 30  0  0  0  0            999 V2000
   -5.0013   -5.3625    0.0000 C   0  0  0  0  0  0  0  0  0  0  0  0
   -4.2868   -5.7750    0.0000 C   0  0  0  0  0  0  0  0  0  0  0  0
   -3.5724   -5.3625    0.0000 O   0  0  0  0  0  0  0  0  0  0  0  0
   -2.8579   -5.7750    0.0000 C   0  0  0  0  0  0  0  0  0  0  0  0
   -2.8579   -6.6000    0.0000 O   0  0  0  0  0  0  0  0  0  0  0  0
   -2.1434   -5.3625    0.0000 C   0  0  0  0  0  0  0  0  0  0  0  0
   -1.4289   -5.7750    0.0000 N   0  0  0  0  0  0  0  0  0  0  0  0
   -0.7145   -5.3625    0.0000 C   0  0  0  0  0  0  0  0  0  0  0  0
   -0.7145   -4.5375    0.0000 O   0  0  0  0  0  0  0  0  0  0  0  0
    0.0000   -5.7750    0.0000 C   0  0  0  0  0  0  0  0  0  0  0  0
    0.7145   -5.3625    0.0000 C   0  0  0  0  0  0  0  0  0  0  0  0
    1.4289   -5.7750    0.0000 C   0  0  0  0  0  0  0  0  0  0  0  0
    1.4289   -6.6000    0.0000 C   0  0  0  0  0  0  0  0  0  0  0  0
    0.7145   -7.0125    0.0000 C   0  0  0  0  0  0  0  0  0  0  0  0
    0.0000   -6.6000    0.0000 C   0  0  0  0  0  0  0  0  0  0  0  0
    2.1434   -7.0125    0.0000 C   0  0  0  0  0  0  0  0  0  0  0  0
    2.8579   -6.6000    0.0000 C   0  0  0  0  0  0  0  0  0  0  0  0
    2.8579   -5.7750    0.0000 N   0  0  0  0  0  0  0  0  0  0  0  0
    3.5724   -5.3625    0.0000 C   0  0  0  0  0  0  0  0  0  0  0  0
    4.2868   -5.7750    0.0000 N   0  0  0  0  0  0  0  0  0  0  0  0
    4.2868   -6.6000    0.0000 C   0  0  0  0  0  0  0  0  0  0  0  0
    5.0013   -7.0125    0.0000 O   0  0  0  0  0  0  0  0  0  0  0  0
    3.5724   -7.0125    0.0000 C   0  0  0  0  0  0  0  0  0  0  0  0
    3.5724   -7.8375    0.0000 C   0  0  0  0  0  0  0  0  0  0  0  0
    4.2868   -8.2500    0.0000 Cl  0  0  0  0  0  0  0  0  0  0  0  0
    2.8579   -8.2500    0.0000 C   0  0  0  0  0  0  0  0  0  0  0  0
    2.8579   -9.0750    0.0000 Br  0  0  0  0  0  0  0  0  0  0  0  0
    2.1434   -7.8375    0.0000 C   0  0  0  0  0  0  0  0  0  0  0  0
  1  2  1  0  0  0  0
  2  3  1  0  0  0  0
  3  4  1  0  0  0  0
  4  5  2  0  0  0  0
  4  6  1  0  0  0  0
  6  7  1  0  0  0  0
  7  8  1  0  0  0  0
  8  9  2  0  0  0  0
  8 10  1  0  0  0  0
 10 11  2  0  0  0  0
 11 12  1  0  0  0  0
 12 13  2  0  0  0  0
 13 14  1  0  0  0  0
 14 15  2  0  0  0  0
 10 15  1  0  0  0  0
 13 16  1  0  0  0  0
 16 17  2  0  0  0  0
 17 18  1  0  0  0  0
 18 19  2  0  0  0  0
 19 20  1  0  0  0  0
 20 21  2  0  0  0  0
 21 22  1  0  0  0  0
 21 23  1  0  0  0  0
 17 23  1  0  0  0  0
 23 24  2  0  0  0  0
 24 25  1  0  0  0  0
 24 26  1  0  0  0  0
 26 27  1  0  0  0  0
 26 28  2  0  0  0  0
 16 28  1  0  0  0  0
M  END
> <ID>
CPD_5000

$$$$
CPD_5005
  Mrv1822 09091914012D          

 30 33  0  0  0  0            999 V2000
   -0.8974    7.7120    0.0000 N   0  0  0  0  0  0  0  0  0  0  0  0
   -0.4125    7.0445    0.0000 C   0  0  0  0  0  0  0  0  0  0  0  0
    0.4125    7.0445    0.0000 N   0  0  0  0  0  0  0  0  0  0  0  0
    0.6674    6.2599    0.0000 N   0  0  0  0  0  0  0  0  0  0  0  0
   -0.0000    5.7750    0.0000 C   0  0  0  0  0  0  0  0  0  0  0  0
   -0.0000    4.9500    0.0000 S   0  0  0  0  0  0  0  0  0  0  0  0
    0.7145    4.5375    0.0000 C   0  0  0  0  0  0  0  0  0  0  0  0
    0.7145    3.7125    0.0000 C   0  0  0  0  0  0  0  0  0  0  0  0
   -0.0000    3.3000    0.0000 O   0  0  0  0  0  0  0  0  0  0  0  0
    1.4289    3.3000    0.0000 N   0  0  0  0  0  0  0  0  0  0  0  0
    1.4289    2.4750    0.0000 C   0  0  0  0  0  0  0  0  0  0  0  0
    2.1434    2.0625    0.0000 C   0  0  0  0  0  0  0  0  0  0  0  0
    2.1434    1.2375    0.0000 C   0  0  0  0  0  0  0  0  0  0  0  0
    1.4289    0.8250    0.0000 C   0  0  0  0  0  0  0  0  0  0  0  0
    0.7145    1.2375    0.0000 C   0  0  0  0  0  0  0  0  0  0  0  0
    0.7145    2.0625    0.0000 C   0  0  0  0  0  0  0  0  0  0  0  0
    1.4289    0.0000    0.0000 C   0  0  0  0  0  0  0  0  0  0  0  0
    2.1434   -0.4125    0.0000 C   0  0  0  0  0  0  0  0  0  0  0  0
    2.8579    0.0000    0.0000 N   0  0  0  0  0  0  0  0  0  0  0  0
    3.5724   -0.4125    0.0000 C   0  0  0  0  0  0  0  0  0  0  0  0
    3.5724   -1.2375    0.0000 N   0  0  0  0  0  0  0  0  0  0  0  0
    2.8579   -1.6500    0.0000 C   0  0  0  0  0  0  0  0  0  0  0  0
    2.8579   -2.4750    0.0000 O   0  0  0  0  0  0  0  0  0  0  0  0
    2.1434   -1.2375    0.0000 C   0  0  0  0  0  0  0  0  0  0  0  0
    1.4289   -1.6500    0.0000 C   0  0  0  0  0  0  0  0  0  0  0  0
    1.4289   -2.4750    0.0000 Cl  0  0  0  0  0  0  0  0  0  0  0  0
    0.7145   -1.2375    0.0000 C   0  0  0  0  0  0  0  0  0  0  0  0
    0.0000   -1.6500    0.0000 Br  0  0  0  0  0  0  0  0  0  0  0  0
    0.7145   -0.4125    0.0000 C   0  0  0  0  0  0  0  0  0  0  0  0
   -0.6674    6.2599    0.0000 S   0  0  0  0  0  0  0  0  0  0  0  0
  1  2  1  0  0  0  0
  2  3  2  0  0  0  0
  3  4  1  0  0  0  0
  4  5  2  0  0  0  0
  5  6  1  0  0  0  0
  6  7  1  0  0  0  0
  7  8  1  0  0  0  0
  8  9  2  0  0  0  0
  8 10  1  0  0  0  0
 10 11  1  0  0  0  0
 11 12  2  0  0  0  0
 12 13  1  0  0  0  0
 13 14  2  0  0  0  0
 14 15  1  0  0  0  0
 15 16  2  0  0  0  0
 11 16  1  0  0  0  0
 14 17  1  0  0  0  0
 17 18  2  0  0  0  0
 18 19  1  0  0  0  0
 19 20  2  0  0  0  0
 20 21  1  0  0  0  0
 21 22  2  0  0  0  0
 22 23  1  0  0  0  0
 22 24  1  0  0  0  0
 18 24  1  0  0  0  0
 24 25  2  0  0  0  0
 25 26  1  0  0  0  0
 25 27  1  0  0  0  0
 27 28  1  0  0  0  0
 27 29  2  0  0  0  0
 17 29  1  0  0  0  0
  5 30  1  0  0  0  0
  2 30  1  0  0  0  0
M  END
> <ID>
CPD_5005

$$$$
CPD_5010
  Mrv1822 09091914012D          

 26 28  0  0  0  0            999 V2000
   -2.7512   -2.5366    0.0000 C   0  0  0  0  0  0  0  0  0  0  0  0
   -2.7512   -3.3616    0.0000 N   0  0  0  0  0  0  0  0  0  0  0  0
   -2.0837   -3.8465    0.0000 N   0  0  0  0  0  0  0  0  0  0  0  0
   -2.3387   -4.6312    0.0000 C   0  0  0  0  0  0  0  0  0  0  0  0
   -3.1637   -4.6312    0.0000 N   0  0  0  0  0  0  0  0  0  0  0  0
   -3.4186   -3.8465    0.0000 C   0  0  0  0  0  0  0  0  0  0  0  0
   -4.2032   -3.5916    0.0000 C   0  0  0  0  0  0  0  0  0  0  0  0
   -1.8538   -5.2986    0.0000 C   0  0  0  0  0  0  0  0  0  0  0  0
   -1.0333   -5.2124    0.0000 C   0  0  0  0  0  0  0  0  0  0  0  0
   -0.5484   -5.8798    0.0000 C   0  0  0  0  0  0  0  0  0  0  0  0
   -0.8839   -6.6335    0.0000 C   0  0  0  0  0  0  0  0  0  0  0  0
   -0.3990   -7.3009    0.0000 C   0  0  0  0  0  0  0  0  0  0  0  0
    0.4215   -7.2147    0.0000 S   0  0  0  0  0  0  0  0  0  0  0  0
    0.5077   -8.0352    0.0000 O   0  0  0  0  0  0  0  0  0  0  0  0
    0.3353   -6.3942    0.0000 O   0  0  0  0  0  0  0  0  0  0  0  0
    1.2420   -7.1284    0.0000 N   0  0  0  0  0  0  0  0  0  0  0  0
    1.5775   -6.3748    0.0000 C   0  0  0  0  0  0  0  0  0  0  0  0
    2.3980   -6.2885    0.0000 C   0  0  0  0  0  0  0  0  0  0  0  0
    2.8829   -6.9560    0.0000 C   0  0  0  0  0  0  0  0  0  0  0  0
    2.5474   -7.7096    0.0000 C   0  0  0  0  0  0  0  0  0  0  0  0
    1.7269   -7.7959    0.0000 C   0  0  0  0  0  0  0  0  0  0  0  0
    3.0323   -8.3771    0.0000 C   0  0  0  0  0  0  0  0  0  0  0  0
    3.8528   -8.2908    0.0000 O   0  0  0  0  0  0  0  0  0  0  0  0
    2.6967   -9.1308    0.0000 O   0  0  0  0  0  0  0  0  0  0  0  0
   -1.7044   -6.7197    0.0000 C   0  0  0  0  0  0  0  0  0  0  0  0
   -2.1893   -6.0523    0.0000 C   0  0  0  0  0  0  0  0  0  0  0  0
  1  2  1  0  0  0  0
  2  3  1  0  0  0  0
  3  4  2  0  0  0  0
  4  5  1  0  0  0  0
  5  6  2  0  0  0  0
  2  6  1  0  0  0  0
  6  7  1  0  0  0  0
  4  8  1  0  0  0  0
  8  9  2  0  0  0  0
  9 10  1  0  0  0  0
 10 11  2  0  0  0  0
 11 12  1  0  0  0  0
 12 13  1  0  0  0  0
 13 14  2  0  0  0  0
 13 15  2  0  0  0  0
 13 16  1  0  0  0  0
 16 17  1  0  0  0  0
 17 18  1  0  0  0  0
 18 19  1  0  0  0  0
 19 20  1  0  0  0  0
 20 21  1  0  0  0  0
 16 21  1  0  0  0  0
 20 22  1  0  0  0  0
 22 23  1  0  0  0  0
 22 24  2  0  0  0  0
 11 25  1  0  0  0  0
 25 26  2  0  0  0  0
  8 26  1  0  0  0  0
M  END
> <ID>
CPD_5010

$$$$
CPD_5015
  Mrv1822 09091914012D          

 26 27  0  0  0  0            999 V2000
    1.4289   -0.0000    0.0000 C   0  0  0  0  0  0  0  0  0  0  0  0
    0.7145   -0.4125    0.0000 O   0  0  0  0  0  0  0  0  0  0  0  0
    0.7145   -1.2375    0.0000 C   0  0  0  0  0  0  0  0  0  0  0  0
    1.4289   -1.6500    0.0000 C   0  0  0  0  0  0  0  0  0  0  0  0
    1.4289   -2.4750    0.0000 C   0  0  0  0  0  0  0  0  0  0  0  0
    0.7145   -2.8875    0.0000 C   0  0  0  0  0  0  0  0  0  0  0  0
    0.0000   -2.4750    0.0000 C   0  0  0  0  0  0  0  0  0  0  0  0
    0.0000   -1.6500    0.0000 C   0  0  0  0  0  0  0  0  0  0  0  0
   -0.7145   -2.8875    0.0000 N   0  0  0  0  0  0  0  0  0  0  0  0
   -0.7145   -3.7125    0.0000 C   0  0  0  0  0  0  0  0  0  0  0  0
   -1.4289   -4.1250    0.0000 C   0  0  0  0  0  0  0  0  0  0  0  0
   -2.1434   -3.7125    0.0000 O   0  0  0  0  0  0  0  0  0  0  0  0
   -1.4289   -4.9500    0.0000 O   0  0  0  0  0  0  0  0  0  0  0  0
   -1.4289   -2.4750    0.0000 S   0  0  0  0  0  0  0  0  0  0  0  0
   -2.1434   -2.0625    0.0000 C   0  0  0  0  0  0  0  0  0  0  0  0
   -1.0164   -1.7605    0.0000 O   0  0  0  0  0  0  0  0  0  0  0  0
   -1.8414   -3.1895    0.0000 O   0  0  0  0  0  0  0  0  0  0  0  0
    0.7145   -3.7125    0.0000 C   0  0  0  0  0  0  0  0  0  0  0  0
    1.4289   -4.1250    0.0000 C   0  0  0  0  0  0  0  0  0  0  0  0
    2.1434   -3.7125    0.0000 F   0  0  0  0  0  0  0  0  0  0  0  0
    1.4289   -4.9500    0.0000 C   0  0  0  0  0  0  0  0  0  0  0  0
    2.1434   -5.3625    0.0000 Cl  0  0  0  0  0  0  0  0  0  0  0  0
    0.7145   -5.3625    0.0000 C   0  0  0  0  0  0  0  0  0  0  0  0
   -0.0000   -4.9500    0.0000 C   0  0  0  0  0  0  0  0  0  0  0  0
   -0.7145   -5.3625    0.0000 N   0  0  0  0  0  0  0  0  0  0  0  0
    0.0000   -4.1250    0.0000 C   0  0  0  0  0  0  0  0  0  0  0  0
  1  2  1  0  0  0  0
  2  3  1  0  0  0  0
  3  4  2  0  0  0  0
  4  5  1  0  0  0  0
  5  6  2  0  0  0  0
  6  7  1  0  0  0  0
  7  8  2  0  0  0  0
  3  8  1  0  0  0  0
  7  9  1  0  0  0  0
  9 10  1  0  0  0  0
 10 11  1  0  0  0  0
 11 12  1  0  0  0  0
 11 13  2  0  0  0  0
  9 14  1  0  0  0  0
 14 15  1  0  0  0  0
 14 16  2  0  0  0  0
 14 17  2  0  0  0  0
  6 18  1  0  0  0  0
 18 19  2  0  0  0  0
 19 20  1  0  0  0  0
 19 21  1  0  0  0  0
 21 22  1  0  0  0  0
 21 23  2  0  0  0  0
 23 24  1  0  0  0  0
 24 25  1  0  0  0  0
 24 26  2  0  0  0  0
 18 26  1  0  0  0  0
M  END
> <ID>
CPD_5015

$$$$
CPD_5020
  Mrv1822 09091914012D          

 37 40  0  0  0  0            999 V2000
   -6.4302    4.5375    0.0000 C   0  0  0  0  0  0  0  0  0  0  0  0
   -6.4302    3.7125    0.0000 O   0  0  0  0  0  0  0  0  0  0  0  0
   -5.7158    3.3000    0.0000 C   0  0  0  0  0  0  0  0  0  0  0  0
   -5.0013    3.7125    0.0000 C   0  0  0  0  0  0  0  0  0  0  0  0
   -4.2868    3.3000    0.0000 C   0  0  0  0  0  0  0  0  0  0  0  0
   -4.2868    2.4750    0.0000 C   0  0  0  0  0  0  0  0  0  0  0  0
   -3.5724    2.0625    0.0000 C   0  0  0  0  0  0  0  0  0  0  0  0
   -2.8579    2.4750    0.0000 C   0  0  0  0  0  0  0  0  0  0  0  0
   -2.1434    2.0625    0.0000 C   0  0  0  0  0  0  0  0  0  0  0  0
   -2.1434    1.2375    0.0000 C   0  0  0  0  0  0  0  0  0  0  0  0
   -1.4289    0.8250    0.0000 C   0  0  0  0  0  0  0  0  0  0  0  0
   -1.4289    0.0000    0.0000 C   0  0  0  0  0  0  0  0  0  0  0  0
   -0.7145   -0.4125    0.0000 N   0  0  0  0  0  0  0  0  0  0  0  0
   -0.7145   -1.2375    0.0000 C   0  0  0  0  0  0  0  0  0  0  0  0
   -1.4289   -1.6500    0.0000 S   0  0  0  0  0  0  0  0  0  0  0  0
    0.0000   -1.6500    0.0000 N   0  0  0  0  0  0  0  0  0  0  0  0
    0.7145   -1.2375    0.0000 C   0  0  0  0  0  0  0  0  0  0  0  0
    0.7145   -0.4125    0.0000 C   0  0  0  0  0  0  0  0  0  0  0  0
    1.4289   -0.0000    0.0000 C   0  0  0  0  0  0  0  0  0  0  0  0
    2.1434   -0.4125    0.0000 C   0  0  0  0  0  0  0  0  0  0  0  0
    2.1434   -1.2375    0.0000 C   0  0  0  0  0  0  0  0  0  0  0  0
    1.4289   -1.6500    0.0000 C   0  0  0  0  0  0  0  0  0  0  0  0
    0.0000   -0.0000    0.0000 C   0  0  0  0  0  0  0  0  0  0  0  0
    0.0000    0.8250    0.0000 O   0  0  0  0  0  0  0  0  0  0  0  0
   -2.8579    0.8250    0.0000 C   0  0  0  0  0  0  0  0  0  0  0  0
   -3.5724    1.2375    0.0000 C   0  0  0  0  0  0  0  0  0  0  0  0
   -5.0013    2.0625    0.0000 C   0  0  0  0  0  0  0  0  0  0  0  0
   -5.7158    2.4750    0.0000 C   0  0  0  0  0  0  0  0  0  0  0  0
   -5.0013    1.2375    0.0000 N   0  0  0  0  0  0  0  0  0  0  0  0
   -4.2868    0.8250    0.0000 C   0  0  0  0  0  0  0  0  0  0  0  0
   -4.2868    0.0000    0.0000 C   0  0  0  0  0  0  0  0  0  0  0  0
   -5.0013   -0.4125    0.0000 O   0  0  0  0  0  0  0  0  0  0  0  0
   -3.5724   -0.4125    0.0000 O   0  0  0  0  0  0  0  0  0  0  0  0
   -5.7158    0.8250    0.0000 S   0  0  0  0  0  0  0  0  0  0  0  0
   -6.4302    0.4125    0.0000 C   0  0  0  0  0  0  0  0  0  0  0  0
   -6.1283    1.5395    0.0000 O   0  0  0  0  0  0  0  0  0  0  0  0
   -5.3033    0.1105    0.0000 O   0  0  0  0  0  0  0  0  0  0  0  0
  1  2  1  0  0  0  0
  2  3  1  0  0  0  0
  3  4  2  0  0  0  0
  4  5  1  0  0  0  0
  5  6  2  0  0  0  0
  6  7  1  0  0  0  0
  7  8  2  0  0  0  0
  8  9  1  0  0  0  0
  9 10  2  0  0  0  0
 10 11  1  0  0  0  0
 11 12  1  0  0  0  0
 12 13  1  0  0  0  0
 13 14  1  0  0  0  0
 14 15  2  0  0  0  0
 14 16  1  0  0  0  0
 16 17  1  0  0  0  0
 17 18  2  0  0  0  0
 18 19  1  0  0  0  0
 19 20  2  0  0  0  0
 20 21  1  0  0  0  0
 21 22  2  0  0  0  0
 17 22  1  0  0  0  0
 18 23  1  0  0  0  0
 13 23  1  0  0  0  0
 23 24  2  0  0  0  0
 10 25  1  0  0  0  0
 25 26  2  0  0  0  0
  7 26  1  0  0  0  0
  6 27  1  0  0  0  0
 27 28  2  0  0  0  0
  3 28  1  0  0  0  0
 27 29  1  0  0  0  0
 29 30  1  0  0  0  0
 30 31  1  0  0  0  0
 31 32  1  0  0  0  0
 31 33  2  0  0  0  0
 29 34  1  0  0  0  0
 34 35  1  0  0  0  0
 34 36  2  0  0  0  0
 34 37  2  0  0  0  0
M  END
> <ID>
CPD_5020

$$$$
CPD_5025
  Mrv1822 09091914012D          

 30 32  0  0  0  0            999 V2000
   -4.2868   -2.4750    0.0000 C   0  0  0  0  0  0  0  0  0  0  0  0
   -3.5724   -2.8875    0.0000 O   0  0  0  0  0  0  0  0  0  0  0  0
   -2.8579   -2.4750    0.0000 C   0  0  0  0  0  0  0  0  0  0  0  0
   -2.1434   -2.8875    0.0000 C   0  0  0  0  0  0  0  0  0  0  0  0
   -1.4289   -2.4750    0.0000 C   0  0  0  0  0  0  0  0  0  0  0  0
   -1.4289   -1.6500    0.0000 C   0  0  0  0  0  0  0  0  0  0  0  0
   -2.1434   -1.2375    0.0000 C   0  0  0  0  0  0  0  0  0  0  0  0
   -2.8579   -1.6500    0.0000 C   0  0  0  0  0  0  0  0  0  0  0  0
   -2.1434   -0.4125    0.0000 N   0  0  0  0  0  0  0  0  0  0  0  0
   -1.4289   -0.0000    0.0000 C   0  0  0  0  0  0  0  0  0  0  0  0
   -1.4289    0.8250    0.0000 C   0  0  0  0  0  0  0  0  0  0  0  0
   -0.7145    1.2375    0.0000 O   0  0  0  0  0  0  0  0  0  0  0  0
   -2.1434    1.2375    0.0000 O   0  0  0  0  0  0  0  0  0  0  0  0
   -2.8579    0.0000    0.0000 S   0  0  0  0  0  0  0  0  0  0  0  0
   -3.5724    0.4125    0.0000 C   0  0  0  0  0  0  0  0  0  0  0  0
   -2.4454    0.7145    0.0000 O   0  0  0  0  0  0  0  0  0  0  0  0
   -3.2704   -0.7145    0.0000 O   0  0  0  0  0  0  0  0  0  0  0  0
   -0.7145   -1.2375    0.0000 C   0  0  0  0  0  0  0  0  0  0  0  0
    0.0000   -1.6500    0.0000 C   0  0  0  0  0  0  0  0  0  0  0  0
    0.0000   -2.4750    0.0000 C   0  0  0  0  0  0  0  0  0  0  0  0
    0.7145   -1.2375    0.0000 C   0  0  0  0  0  0  0  0  0  0  0  0
    0.7145   -0.4125    0.0000 C   0  0  0  0  0  0  0  0  0  0  0  0
    0.0000   -0.0000    0.0000 C   0  0  0  0  0  0  0  0  0  0  0  0
   -0.7145   -0.4125    0.0000 C   0  0  0  0  0  0  0  0  0  0  0  0
    1.4289   -0.0000    0.0000 C   0  0  0  0  0  0  0  0  0  0  0  0
    1.4289    0.8250    0.0000 C   0  0  0  0  0  0  0  0  0  0  0  0
    2.1434   -0.4125    0.0000 C   0  0  0  0  0  0  0  0  0  0  0  0
    2.1434   -1.2375    0.0000 C   0  0  0  0  0  0  0  0  0  0  0  0
    2.8579   -1.6500    0.0000 O   0  0  0  0  0  0  0  0  0  0  0  0
    1.4289   -1.6500    0.0000 N   0  0  0  0  0  0  0  0  0  0  0  0
  1  2  1  0  0  0  0
  2  3  1  0  0  0  0
  3  4  2  0  0  0  0
  4  5  1  0  0  0  0
  5  6  2  0  0  0  0
  6  7  1  0  0  0  0
  7  8  2  0  0  0  0
  3  8  1  0  0  0  0
  7  9  1  0  0  0  0
  9 10  1  0  0  0  0
 10 11  1  0  0  0  0
 11 12  1  0  0  0  0
 11 13  2  0  0  0  0
  9 14  1  0  0  0  0
 14 15  1  0  0  0  0
 14 16  2  0  0  0  0
 14 17  2  0  0  0  0
  6 18  1  0  0  0  0
 18 19  2  0  0  0  0
 19 20  1  0  0  0  0
 19 21  1  0  0  0  0
 21 22  2  0  0  0  0
 22 23  1  0  0  0  0
 23 24  2  0  0  0  0
 18 24  1  0  0  0  0
 22 25  1  0  0  0  0
 25 26  1  0  0  0  0
 25 27  2  0  0  0  0
 27 28  1  0  0  0  0
 28 29  1  0  0  0  0
 28 30  2  0  0  0  0
 21 30  1  0  0  0  0
M  END
> <ID>
CPD_5025

$$$$
CPD_5030
  Mrv1822 09091914012D          

 27 29  0  0  0  0            999 V2000
    1.4289   -6.6000    0.0000 C   0  0  0  0  0  0  0  0  0  0  0  0
    2.1434   -6.1875    0.0000 C   0  0  0  0  0  0  0  0  0  0  0  0
    2.8579   -6.6000    0.0000 O   0  0  0  0  0  0  0  0  0  0  0  0
    3.5724   -6.1875    0.0000 C   0  0  0  0  0  0  0  0  0  0  0  0
    3.5724   -5.3625    0.0000 O   0  0  0  0  0  0  0  0  0  0  0  0
    4.2868   -6.6000    0.0000 C   0  0  0  0  0  0  0  0  0  0  0  0
    5.0013   -6.1875    0.0000 C   0  0  0  0  0  0  0  0  0  0  0  0
    5.0013   -5.3625    0.0000 N   0  0  0  0  0  0  0  0  0  0  0  0
    5.7158   -6.6000    0.0000 C   0  0  0  0  0  0  0  0  0  0  0  0
    6.4302   -6.1875    0.0000 C   0  0  0  0  0  0  0  0  0  0  0  0
    7.1447   -6.6000    0.0000 C   0  0  0  0  0  0  0  0  0  0  0  0
    7.1447   -7.4250    0.0000 C   0  0  0  0  0  0  0  0  0  0  0  0
    6.4302   -7.8375    0.0000 C   0  0  0  0  0  0  0  0  0  0  0  0
    5.7158   -7.4250    0.0000 C   0  0  0  0  0  0  0  0  0  0  0  0
    5.0013   -7.8375    0.0000 C   0  0  0  0  0  0  0  0  0  0  0  0
    7.8592   -7.8375    0.0000 C   0  0  0  0  0  0  0  0  0  0  0  0
    8.5737   -7.4250    0.0000 C   0  0  0  0  0  0  0  0  0  0  0  0
    9.2881   -7.8375    0.0000 C   0  0  0  0  0  0  0  0  0  0  0  0
    9.2881   -8.6625    0.0000 C   0  0  0  0  0  0  0  0  0  0  0  0
    8.5737   -9.0750    0.0000 C   0  0  0  0  0  0  0  0  0  0  0  0
    8.7452   -9.8820    0.0000 N   0  0  0  0  0  0  0  0  0  0  0  0
    9.5657   -9.9682    0.0000 C   0  0  0  0  0  0  0  0  0  0  0  0
    9.9012   -9.2145    0.0000 C   0  0  0  0  0  0  0  0  0  0  0  0
   10.7082   -9.0430    0.0000 C   0  0  0  0  0  0  0  0  0  0  0  0
   10.9631   -8.2584    0.0000 O   0  0  0  0  0  0  0  0  0  0  0  0
   11.2602   -9.6561    0.0000 O   0  0  0  0  0  0  0  0  0  0  0  0
    7.8592   -8.6625    0.0000 N   0  0  0  0  0  0  0  0  0  0  0  0
  1  2  1  0  0  0  0
  2  3  1  0  0  0  0
  3  4  1  0  0  0  0
  4  5  2  0  0  0  0
  4  6  1  0  0  0  0
  6  7  1  0  0  0  0
  7  8  1  0  0  0  0
  7  9  1  0  0  0  0
  9 10  2  0  0  0  0
 10 11  1  0  0  0  0
 11 12  2  0  0  0  0
 12 13  1  0  0  0  0
 13 14  2  0  0  0  0
  9 14  1  0  0  0  0
 14 15  1  0  0  0  0
 12 16  1  0  0  0  0
 16 17  2  0  0  0  0
 17 18  1  0  0  0  0
 18 19  2  0  0  0  0
 19 20  1  0  0  0  0
 20 21  1  0  0  0  0
 21 22  1  0  0  0  0
 22 23  2  0  0  0  0
 19 23  1  0  0  0  0
 23 24  1  0  0  0  0
 24 25  1  0  0  0  0
 24 26  2  0  0  0  0
 20 27  2  0  0  0  0
 16 27  1  0  0  0  0
M  END
> <ID>
CPD_5030

$$$$
CPD_5035
  Mrv1822 09091914012D          

 32 34  0  0  0  0            999 V2000
    0.0000   -9.0750    0.0000 C   0  0  0  0  0  0  0  0  0  0  0  0
    0.7145   -8.6625    0.0000 C   0  0  0  0  0  0  0  0  0  0  0  0
    1.4289   -9.0750    0.0000 O   0  0  0  0  0  0  0  0  0  0  0  0
    2.1434   -8.6625    0.0000 C   0  0  0  0  0  0  0  0  0  0  0  0
    2.1434   -7.8375    0.0000 O   0  0  0  0  0  0  0  0  0  0  0  0
    2.8579   -9.0750    0.0000 C   0  0  0  0  0  0  0  0  0  0  0  0
    3.5724   -8.6625    0.0000 C   0  0  0  0  0  0  0  0  0  0  0  0
    3.5724   -7.8375    0.0000 N   0  0  0  0  0  0  0  0  0  0  0  0
    4.2868   -9.0750    0.0000 C   0  0  0  0  0  0  0  0  0  0  0  0
    5.0013   -8.6625    0.0000 C   0  0  0  0  0  0  0  0  0  0  0  0
    5.7158   -9.0750    0.0000 C   0  0  0  0  0  0  0  0  0  0  0  0
    5.7158   -9.9000    0.0000 C   0  0  0  0  0  0  0  0  0  0  0  0
    5.0013  -10.3125    0.0000 C   0  0  0  0  0  0  0  0  0  0  0  0
    4.2868   -9.9000    0.0000 C   0  0  0  0  0  0  0  0  0  0  0  0
    3.5724  -10.3125    0.0000 C   0  0  0  0  0  0  0  0  0  0  0  0
    6.4302  -10.3125    0.0000 C   0  0  0  0  0  0  0  0  0  0  0  0
    6.4302  -11.1375    0.0000 C   0  0  0  0  0  0  0  0  0  0  0  0
    7.1447  -11.5500    0.0000 C   0  0  0  0  0  0  0  0  0  0  0  0
    7.8592  -11.1375    0.0000 N   0  0  0  0  0  0  0  0  0  0  0  0
    7.8592  -10.3125    0.0000 C   0  0  0  0  0  0  0  0  0  0  0  0
    7.1447   -9.9000    0.0000 C   0  0  0  0  0  0  0  0  0  0  0  0
    7.1447  -12.3750    0.0000 C   0  0  0  0  0  0  0  0  0  0  0  0
    6.4302  -12.7875    0.0000 O   0  0  0  0  0  0  0  0  0  0  0  0
    7.8592  -12.7875    0.0000 N   0  0  0  0  0  0  0  0  0  0  0  0
    8.5737  -12.3750    0.0000 C   0  0  0  0  0  0  0  0  0  0  0  0
    9.2881  -12.7875    0.0000 C   0  0  0  0  0  0  0  0  0  0  0  0
    9.2881  -13.6125    0.0000 C   0  0  0  0  0  0  0  0  0  0  0  0
    8.5737  -14.0250    0.0000 C   0  0  0  0  0  0  0  0  0  0  0  0
    7.8592  -13.6125    0.0000 C   0  0  0  0  0  0  0  0  0  0  0  0
    7.1447  -14.0250    0.0000 C   0  0  0  0  0  0  0  0  0  0  0  0
    6.4302  -13.6125    0.0000 O   0  0  0  0  0  0  0  0  0  0  0  0
    7.1447  -14.8500    0.0000 O   0  0  0  0  0  0  0  0  0  0  0  0
  1  2  1  0  0  0  0
  2  3  1  0  0  0  0
  3  4  1  0  0  0  0
  4  5  2  0  0  0  0
  4  6  1  0  0  0  0
  6  7  1  0  0  0  0
  7  8  1  0  0  0  0
  7  9  1  0  0  0  0
  9 10  2  0  0  0  0
 10 11  1  0  0  0  0
 11 12  2  0  0  0  0
 12 13  1  0  0  0  0
 13 14  2  0  0  0  0
  9 14  1  0  0  0  0
 14 15  1  0  0  0  0
 12 16  1  0  0  0  0
 16 17  2  0  0  0  0
 17 18  1  0  0  0  0
 18 19  2  0  0  0  0
 19 20  1  0  0  0  0
 20 21  2  0  0  0  0
 16 21  1  0  0  0  0
 18 22  1  0  0  0  0
 22 23  2  0  0  0  0
 22 24  1  0  0  0  0
 24 25  1  0  0  0  0
 25 26  1  0  0  0  0
 26 27  1  0  0  0  0
 27 28  1  0  0  0  0
 28 29  1  0  0  0  0
 24 29  1  0  0  0  0
 29 30  1  0  0  0  0
 30 31  1  0  0  0  0
 30 32  2  0  0  0  0
M  END
> <ID>
CPD_5035

$$$$
CPD_5040
  Mrv1822 09091914012D          

 28 30  0  0  0  0            999 V2000
    0.0000    0.8250    0.0000 C   0  0  0  0  0  0  0  0  0  0  0  0
    0.0000   -0.0000    0.0000 C   0  0  0  0  0  0  0  0  0  0  0  0
   -0.7145   -0.4125    0.0000 C   0  0  0  0  0  0  0  0  0  0  0  0
   -0.7145   -1.2375    0.0000 C   0  0  0  0  0  0  0  0  0  0  0  0
   -1.5269   -1.0942    0.0000 C   0  0  0  0  0  0  0  0  0  0  0  0
   -0.9966   -2.0127    0.0000 C   0  0  0  0  0  0  0  0  0  0  0  0
    0.0000   -1.6500    0.0000 N   0  0  0  0  0  0  0  0  0  0  0  0
    0.0000   -2.4750    0.0000 C   0  0  0  0  0  0  0  0  0  0  0  0
    0.7145   -2.8875    0.0000 O   0  0  0  0  0  0  0  0  0  0  0  0
   -0.7145   -2.8875    0.0000 O   0  0  0  0  0  0  0  0  0  0  0  0
   -0.7145   -3.7125    0.0000 C   0  0  0  0  0  0  0  0  0  0  0  0
   -0.7145   -4.5375    0.0000 C   0  0  0  0  0  0  0  0  0  0  0  0
    0.1105   -3.7125    0.0000 C   0  0  0  0  0  0  0  0  0  0  0  0
   -1.5395   -3.7125    0.0000 C   0  0  0  0  0  0  0  0  0  0  0  0
    0.7145   -1.2375    0.0000 C   0  0  0  0  0  0  0  0  0  0  0  0
    0.7145   -0.4125    0.0000 C   0  0  0  0  0  0  0  0  0  0  0  0
    1.4289   -0.0000    0.0000 C   0  0  0  0  0  0  0  0  0  0  0  0
    2.1434   -0.4125    0.0000 C   0  0  0  0  0  0  0  0  0  0  0  0
    2.1434   -1.2375    0.0000 C   0  0  0  0  0  0  0  0  0  0  0  0
    1.4289   -1.6500    0.0000 C   0  0  0  0  0  0  0  0  0  0  0  0
    2.8579   -0.0000    0.0000 C   0  0  0  0  0  0  0  0  0  0  0  0
    2.8579    0.8250    0.0000 C   0  0  0  0  0  0  0  0  0  0  0  0
    3.5724    1.2375    0.0000 N   0  0  0  0  0  0  0  0  0  0  0  0
    4.2868    0.8250    0.0000 C   0  0  0  0  0  0  0  0  0  0  0  0
    4.2868   -0.0000    0.0000 C   0  0  0  0  0  0  0  0  0  0  0  0
    5.0013   -0.4125    0.0000 C   0  0  0  0  0  0  0  0  0  0  0  0
    5.7158   -0.0000    0.0000 O   0  0  0  0  0  0  0  0  0  0  0  0
    3.5724   -0.4125    0.0000 N   0  0  0  0  0  0  0  0  0  0  0  0
  1  2  1  0  0  0  0
  2  3  2  0  0  0  0
  3  4  1  0  0  0  0
  4  5  1  0  0  0  0
  4  6  1  0  0  0  0
  4  7  1  0  0  0  0
  7  8  1  0  0  0  0
  8  9  2  0  0  0  0
  8 10  1  0  0  0  0
 10 11  1  0  0  0  0
 11 12  1  0  0  0  0
 11 13  1  0  0  0  0
 11 14  1  0  0  0  0
  7 15  1  0  0  0  0
 15 16  2  0  0  0  0
  2 16  1  0  0  0  0
 16 17  1  0  0  0  0
 17 18  2  0  0  0  0
 18 19  1  0  0  0  0
 19 20  2  0  0  0  0
 15 20  1  0  0  0  0
 18 21  1  0  0  0  0
 21 22  2  0  0  0  0
 22 23  1  0  0  0  0
 23 24  2  0  0  0  0
 24 25  1  0  0  0  0
 25 26  1  0  0  0  0
 26 27  1  0  0  0  0
 25 28  2  0  0  0  0
 21 28  1  0  0  0  0
M  END
> <ID>
CPD_5040

$$$$
CPD_5045
  Mrv1822 09091914012D          

 36 39  0  0  0  0            999 V2000
   -1.8414   -1.7605    0.0000 C   0  0  0  0  0  0  0  0  0  0  0  0
   -1.4289   -2.4750    0.0000 O   0  0  0  0  0  0  0  0  0  0  0  0
   -0.6039   -2.4750    0.0000 C   0  0  0  0  0  0  0  0  0  0  0  0
   -0.1914   -1.7605    0.0000 O   0  0  0  0  0  0  0  0  0  0  0  0
   -0.1914   -3.1895    0.0000 C   0  0  0  0  0  0  0  0  0  0  0  0
    0.6336   -3.1895    0.0000 N   0  0  0  0  0  0  0  0  0  0  0  0
    1.0461   -3.9039    0.0000 C   0  0  0  0  0  0  0  0  0  0  0  0
    0.6336   -4.6184    0.0000 C   0  0  0  0  0  0  0  0  0  0  0  0
    1.0461   -5.3329    0.0000 C   0  0  0  0  0  0  0  0  0  0  0  0
    1.8711   -5.3329    0.0000 C   0  0  0  0  0  0  0  0  0  0  0  0
    2.2836   -4.6184    0.0000 C   0  0  0  0  0  0  0  0  0  0  0  0
    1.8711   -3.9039    0.0000 C   0  0  0  0  0  0  0  0  0  0  0  0
    3.1086   -4.6184    0.0000 C   0  0  0  0  0  0  0  0  0  0  0  0
    3.5211   -3.9039    0.0000 C   0  0  0  0  0  0  0  0  0  0  0  0
    4.3461   -3.9039    0.0000 C   0  0  0  0  0  0  0  0  0  0  0  0
    4.7586   -4.6184    0.0000 C   0  0  0  0  0  0  0  0  0  0  0  0
    4.3461   -5.3329    0.0000 C   0  0  0  0  0  0  0  0  0  0  0  0
    3.5211   -5.3329    0.0000 C   0  0  0  0  0  0  0  0  0  0  0  0
    5.5836   -4.6184    0.0000 C   0  0  0  0  0  0  0  0  0  0  0  0
    6.3905   -4.4469    0.0000 C   0  0  0  0  0  0  0  0  0  0  0  0
    6.8030   -5.1614    0.0000 C   0  0  0  0  0  0  0  0  0  0  0  0
    6.2510   -5.7745    0.0000 C   0  0  0  0  0  0  0  0  0  0  0  0
    5.4973   -5.4389    0.0000 C   0  0  0  0  0  0  0  0  0  0  0  0
    5.4973   -3.7979    0.0000 C   0  0  0  0  0  0  0  0  0  0  0  0
    6.1648   -3.3130    0.0000 O   0  0  0  0  0  0  0  0  0  0  0  0
    4.7436   -3.4624    0.0000 O   0  0  0  0  0  0  0  0  0  0  0  0
    1.0461   -2.4750    0.0000 S   0  0  0  0  0  0  0  0  0  0  0  0
    1.7605   -2.8875    0.0000 O   0  0  0  0  0  0  0  0  0  0  0  0
    0.3316   -2.0625    0.0000 O   0  0  0  0  0  0  0  0  0  0  0  0
    1.4586   -1.7605    0.0000 C   0  0  0  0  0  0  0  0  0  0  0  0
    1.0461   -1.0461    0.0000 C   0  0  0  0  0  0  0  0  0  0  0  0
    1.4586   -0.3316    0.0000 C   0  0  0  0  0  0  0  0  0  0  0  0
    2.2836   -0.3316    0.0000 C   0  0  0  0  0  0  0  0  0  0  0  0
    2.6961    0.3829    0.0000 C   0  0  0  0  0  0  0  0  0  0  0  0
    2.6961   -1.0461    0.0000 C   0  0  0  0  0  0  0  0  0  0  0  0
    2.2836   -1.7605    0.0000 C   0  0  0  0  0  0  0  0  0  0  0  0
  1  2  1  0  0  0  0
  2  3  1  0  0  0  0
  3  4  2  0  0  0  0
  3  5  1  0  0  0  0
  5  6  1  0  0  0  0
  6  7  1  0  0  0  0
  7  8  2  0  0  0  0
  8  9  1  0  0  0  0
  9 10  2  0  0  0  0
 10 11  1  0  0  0  0
 11 12  2  0  0  0  0
  7 12  1  0  0  0  0
 11 13  1  0  0  0  0
 13 14  2  0  0  0  0
 14 15  1  0  0  0  0
 15 16  2  0  0  0  0
 16 17  1  0  0  0  0
 17 18  2  0  0  0  0
 13 18  1  0  0  0  0
 16 19  1  0  0  0  0
 19 20  1  0  0  0  0
 20 21  1  0  0  0  0
 21 22  1  0  0  0  0
 22 23  1  0  0  0  0
 19 23  1  0  0  0  0
 19 24  1  0  0  0  0
 24 25  1  0  0  0  0
 24 26  2  0  0  0  0
  6 27  1  0  0  0  0
 27 28  2  0  0  0  0
 27 29  2  0  0  0  0
 27 30  1  0  0  0  0
 30 31  2  0  0  0  0
 31 32  1  0  0  0  0
 32 33  2  0  0  0  0
 33 34  1  0  0  0  0
 33 35  1  0  0  0  0
 35 36  2  0  0  0  0
 30 36  1  0  0  0  0
M  END
> <ID>
CPD_5045

$$$$
CPD_5050
  Mrv1822 09091914012D          

 38 41  0  0  0  0            999 V2000
   -1.8414   -1.7605    0.0000 C   0  0  0  0  0  0  0  0  0  0  0  0
   -1.4289   -2.4750    0.0000 O   0  0  0  0  0  0  0  0  0  0  0  0
   -0.6039   -2.4750    0.0000 C   0  0  0  0  0  0  0  0  0  0  0  0
   -0.1914   -1.7605    0.0000 O   0  0  0  0  0  0  0  0  0  0  0  0
   -0.1914   -3.1895    0.0000 C   0  0  0  0  0  0  0  0  0  0  0  0
    0.6336   -3.1895    0.0000 N   0  0  0  0  0  0  0  0  0  0  0  0
    1.0461   -3.9039    0.0000 C   0  0  0  0  0  0  0  0  0  0  0  0
    0.6336   -4.6184    0.0000 C   0  0  0  0  0  0  0  0  0  0  0  0
    1.0461   -5.3329    0.0000 C   0  0  0  0  0  0  0  0  0  0  0  0
    1.8711   -5.3329    0.0000 C   0  0  0  0  0  0  0  0  0  0  0  0
    2.2836   -4.6184    0.0000 C   0  0  0  0  0  0  0  0  0  0  0  0
    1.8711   -3.9039    0.0000 C   0  0  0  0  0  0  0  0  0  0  0  0
    3.1086   -4.6184    0.0000 C   0  0  0  0  0  0  0  0  0  0  0  0
    3.5211   -3.9039    0.0000 C   0  0  0  0  0  0  0  0  0  0  0  0
    4.3461   -3.9039    0.0000 C   0  0  0  0  0  0  0  0  0  0  0  0
    4.7586   -4.6184    0.0000 C   0  0  0  0  0  0  0  0  0  0  0  0
    4.3461   -5.3329    0.0000 C   0  0  0  0  0  0  0  0  0  0  0  0
    4.7586   -6.0474    0.0000 O   0  0  0  0  0  0  0  0  0  0  0  0
    4.3461   -6.7618    0.0000 C   0  0  0  0  0  0  0  0  0  0  0  0
    3.5211   -5.3329    0.0000 C   0  0  0  0  0  0  0  0  0  0  0  0
    5.5836   -4.6184    0.0000 C   0  0  0  0  0  0  0  0  0  0  0  0
    5.9961   -3.9039    0.0000 C   0  0  0  0  0  0  0  0  0  0  0  0
    6.8211   -3.9039    0.0000 C   0  0  0  0  0  0  0  0  0  0  0  0
    7.2336   -4.6184    0.0000 C   0  0  0  0  0  0  0  0  0  0  0  0
    6.8211   -5.3329    0.0000 C   0  0  0  0  0  0  0  0  0  0  0  0
    5.9961   -5.3329    0.0000 C   0  0  0  0  0  0  0  0  0  0  0  0
    7.2336   -6.0474    0.0000 C   0  0  0  0  0  0  0  0  0  0  0  0
    7.6461   -6.7618    0.0000 N   0  0  0  0  0  0  0  0  0  0  0  0
    1.0461   -2.4750    0.0000 S   0  0  0  0  0  0  0  0  0  0  0  0
    1.7605   -2.8875    0.0000 O   0  0  0  0  0  0  0  0  0  0  0  0
    0.3316   -2.0625    0.0000 O   0  0  0  0  0  0  0  0  0  0  0  0
    1.4586   -1.7605    0.0000 C   0  0  0  0  0  0  0  0  0  0  0  0
    1.0461   -1.0461    0.0000 C   0  0  0  0  0  0  0  0  0  0  0  0
    1.4586   -0.3316    0.0000 C   0  0  0  0  0  0  0  0  0  0  0  0
    2.2836   -0.3316    0.0000 C   0  0  0  0  0  0  0  0  0  0  0  0
    2.6961    0.3829    0.0000 C   0  0  0  0  0  0  0  0  0  0  0  0
    2.6961   -1.0461    0.0000 C   0  0  0  0  0  0  0  0  0  0  0  0
    2.2836   -1.7605    0.0000 C   0  0  0  0  0  0  0  0  0  0  0  0
  1  2  1  0  0  0  0
  2  3  1  0  0  0  0
  3  4  2  0  0  0  0
  3  5  1  0  0  0  0
  5  6  1  0  0  0  0
  6  7  1  0  0  0  0
  7  8  2  0  0  0  0
  8  9  1  0  0  0  0
  9 10  2  0  0  0  0
 10 11  1  0  0  0  0
 11 12  2  0  0  0  0
  7 12  1  0  0  0  0
 11 13  1  0  0  0  0
 13 14  2  0  0  0  0
 14 15  1  0  0  0  0
 15 16  2  0  0  0  0
 16 17  1  0  0  0  0
 17 18  1  0  0  0  0
 18 19  1  0  0  0  0
 17 20  2  0  0  0  0
 13 20  1  0  0  0  0
 16 21  1  0  0  0  0
 21 22  2  0  0  0  0
 22 23  1  0  0  0  0
 23 24  2  0  0  0  0
 24 25  1  0  0  0  0
 25 26  2  0  0  0  0
 21 26  1  0  0  0  0
 25 27  1  0  0  0  0
 27 28  3  0  0  0  0
  6 29  1  0  0  0  0
 29 30  2  0  0  0  0
 29 31  2  0  0  0  0
 29 32  1  0  0  0  0
 32 33  2  0  0  0  0
 33 34  1  0  0  0  0
 34 35  2  0  0  0  0
 35 36  1  0  0  0  0
 35 37  1  0  0  0  0
 37 38  2  0  0  0  0
 32 38  1  0  0  0  0
M  END
> <ID>
CPD_5050

$$$$
CPD_5055
  Mrv1822 09091914012D          

 31 34  0  0  0  0            999 V2000
    3.8743   -1.7605    0.0000 C   0  0  0  0  0  0  0  0  0  0  0  0
    4.2868   -2.4750    0.0000 O   0  0  0  0  0  0  0  0  0  0  0  0
    5.1118   -2.4750    0.0000 C   0  0  0  0  0  0  0  0  0  0  0  0
    5.5243   -1.7605    0.0000 O   0  0  0  0  0  0  0  0  0  0  0  0
    5.5243   -3.1895    0.0000 C   0  0  0  0  0  0  0  0  0  0  0  0
    6.3493   -3.1895    0.0000 N   0  0  0  0  0  0  0  0  0  0  0  0
    6.7618   -3.9039    0.0000 C   0  0  0  0  0  0  0  0  0  0  0  0
    7.5868   -3.9039    0.0000 C   0  0  0  0  0  0  0  0  0  0  0  0
    7.9993   -4.6184    0.0000 C   0  0  0  0  0  0  0  0  0  0  0  0
    7.5868   -5.3329    0.0000 C   0  0  0  0  0  0  0  0  0  0  0  0
    6.7618   -5.3329    0.0000 C   0  0  0  0  0  0  0  0  0  0  0  0
    6.3493   -4.6184    0.0000 C   0  0  0  0  0  0  0  0  0  0  0  0
    6.3493   -6.0474    0.0000 C   0  0  0  0  0  0  0  0  0  0  0  0
    6.7618   -6.7618    0.0000 C   0  0  0  0  0  0  0  0  0  0  0  0
    7.5688   -6.9334    0.0000 N   0  0  0  0  0  0  0  0  0  0  0  0
    7.6550   -7.7538    0.0000 C   0  0  0  0  0  0  0  0  0  0  0  0
    6.9014   -8.0894    0.0000 C   0  0  0  0  0  0  0  0  0  0  0  0
    6.3493   -7.4763    0.0000 C   0  0  0  0  0  0  0  0  0  0  0  0
    5.5243   -7.4763    0.0000 C   0  0  0  0  0  0  0  0  0  0  0  0
    5.1118   -6.7618    0.0000 N   0  0  0  0  0  0  0  0  0  0  0  0
    5.5243   -6.0474    0.0000 C   0  0  0  0  0  0  0  0  0  0  0  0
    6.7618   -2.4750    0.0000 S   0  0  0  0  0  0  0  0  0  0  0  0
    6.0474   -2.0625    0.0000 O   0  0  0  0  0  0  0  0  0  0  0  0
    7.4763   -2.8875    0.0000 O   0  0  0  0  0  0  0  0  0  0  0  0
    7.1743   -1.7605    0.0000 C   0  0  0  0  0  0  0  0  0  0  0  0
    6.7618   -1.0461    0.0000 C   0  0  0  0  0  0  0  0  0  0  0  0
    7.1743   -0.3316    0.0000 C   0  0  0  0  0  0  0  0  0  0  0  0
    7.9993   -0.3316    0.0000 C   0  0  0  0  0  0  0  0  0  0  0  0
    8.4118    0.3829    0.0000 C   0  0  0  0  0  0  0  0  0  0  0  0
    8.4118   -1.0461    0.0000 C   0  0  0  0  0  0  0  0  0  0  0  0
    7.9993   -1.7605    0.0000 C   0  0  0  0  0  0  0  0  0  0  0  0
  1  2  1  0  0  0  0
  2  3  1  0  0  0  0
  3  4  2  0  0  0  0
  3  5  1  0  0  0  0
  5  6  1  0  0  0  0
  6  7  1  0  0  0  0
  7  8  2  0  0  0  0
  8  9  1  0  0  0  0
  9 10  2  0  0  0  0
 10 11  1  0  0  0  0
 11 12  2  0  0  0  0
  7 12  1  0  0  0  0
 11 13  1  0  0  0  0
 13 14  2  0  0  0  0
 14 15  1  0  0  0  0
 15 16  1  0  0  0  0
 16 17  1  0  0  0  0
 17 18  1  0  0  0  0
 14 18  1  0  0  0  0
 18 19  2  0  0  0  0
 19 20  1  0  0  0  0
 20 21  2  0  0  0  0
 13 21  1  0  0  0  0
  6 22  1  0  0  0  0
 22 23  2  0  0  0  0
 22 24  2  0  0  0  0
 22 25  1  0  0  0  0
 25 26  2  0  0  0  0
 26 27  1  0  0  0  0
 27 28  2  0  0  0  0
 28 29  1  0  0  0  0
 28 30  1  0  0  0  0
 30 31  2  0  0  0  0
 25 31  1  0  0  0  0
M  END
> <ID>
CPD_5055

$$$$
CPD_5060
  Mrv1822 09091914012D          

 25 27  0  0  0  0            999 V2000
   -1.4289    0.8250    0.0000 N   0  0  0  0  0  0  0  0  0  0  0  0
   -1.4289   -0.0000    0.0000 C   0  0  0  0  0  0  0  0  0  0  0  0
   -2.1434   -0.4125    0.0000 C   0  0  0  0  0  0  0  0  0  0  0  0
   -2.1434   -1.2375    0.0000 C   0  0  0  0  0  0  0  0  0  0  0  0
   -1.4289   -1.6500    0.0000 N   0  0  0  0  0  0  0  0  0  0  0  0
   -0.7145   -1.2375    0.0000 C   0  0  0  0  0  0  0  0  0  0  0  0
    0.0000   -1.6500    0.0000 O   0  0  0  0  0  0  0  0  0  0  0  0
   -0.7145   -0.4125    0.0000 N   0  0  0  0  0  0  0  0  0  0  0  0
   -2.8579   -0.0000    0.0000 C   0  0  0  0  0  0  0  0  0  0  0  0
   -3.5724   -0.4125    0.0000 C   0  0  0  0  0  0  0  0  0  0  0  0
   -4.2868   -0.0000    0.0000 C   0  0  0  0  0  0  0  0  0  0  0  0
   -4.2868    0.8250    0.0000 C   0  0  0  0  0  0  0  0  0  0  0  0
   -3.5724    1.2375    0.0000 C   0  0  0  0  0  0  0  0  0  0  0  0
   -3.5724    2.0625    0.0000 Cl  0  0  0  0  0  0  0  0  0  0  0  0
   -2.8579    0.8250    0.0000 C   0  0  0  0  0  0  0  0  0  0  0  0
   -3.5724   -1.2375    0.0000 C   0  0  0  0  0  0  0  0  0  0  0  0
   -2.8579   -1.6500    0.0000 C   0  0  0  0  0  0  0  0  0  0  0  0
   -2.8579   -2.4750    0.0000 C   0  0  0  0  0  0  0  0  0  0  0  0
   -2.1434   -2.8875    0.0000 C   0  0  0  0  0  0  0  0  0  0  0  0
   -1.4289   -2.4750    0.0000 O   0  0  0  0  0  0  0  0  0  0  0  0
   -2.1434   -3.7125    0.0000 O   0  0  0  0  0  0  0  0  0  0  0  0
   -3.5724   -2.8875    0.0000 C   0  0  0  0  0  0  0  0  0  0  0  0
   -3.5724   -3.7125    0.0000 F   0  0  0  0  0  0  0  0  0  0  0  0
   -4.2868   -2.4750    0.0000 C   0  0  0  0  0  0  0  0  0  0  0  0
   -4.2868   -1.6500    0.0000 C   0  0  0  0  0  0  0  0  0  0  0  0
  1  2  1  0  0  0  0
  2  3  2  0  0  0  0
  3  4  1  0  0  0  0
  4  5  2  0  0  0  0
  5  6  1  0  0  0  0
  6  7  2  0  0  0  0
  6  8  1  0  0  0  0
  2  8  1  0  0  0  0
  3  9  1  0  0  0  0
  9 10  2  0  0  0  0
 10 11  1  0  0  0  0
 11 12  2  0  0  0  0
 12 13  1  0  0  0  0
 13 14  1  0  0  0  0
 13 15  2  0  0  0  0
  9 15  1  0  0  0  0
 10 16  1  0  0  0  0
 16 17  2  0  0  0  0
 17 18  1  0  0  0  0
 18 19  1  0  0  0  0
 19 20  1  0  0  0  0
 19 21  2  0  0  0  0
 18 22  2  0  0  0  0
 22 23  1  0  0  0  0
 22 24  1  0  0  0  0
 24 25  2  0  0  0  0
 16 25  1  0  0  0  0
M  END
> <ID>
CPD_5060

$$$$
CPD_5065
  Mrv1822 09091914012D          

 19 20  0  0  0  0            999 V2000
    0.0000   -0.0000    0.0000 C   0  0  0  0  0  0  0  0  0  0  0  0
    0.7145   -0.4125    0.0000 O   0  0  0  0  0  0  0  0  0  0  0  0
    0.7145   -1.2375    0.0000 C   0  0  0  0  0  0  0  0  0  0  0  0
    1.4289   -1.6500    0.0000 C   0  0  0  0  0  0  0  0  0  0  0  0
    2.1434   -1.2375    0.0000 C   0  0  0  0  0  0  0  0  0  0  0  0
    2.1434   -0.4125    0.0000 N   0  0  0  0  0  0  0  0  0  0  0  0
    2.8579   -0.0000    0.0000 N   0  0  0  0  0  0  0  0  0  0  0  0
    2.8579    0.8250    0.0000 C   0  0  0  0  0  0  0  0  0  0  0  0
    3.5724   -0.4125    0.0000 C   0  0  0  0  0  0  0  0  0  0  0  0
    4.2868   -0.0000    0.0000 O   0  0  0  0  0  0  0  0  0  0  0  0
    3.5724   -1.2375    0.0000 C   0  0  0  0  0  0  0  0  0  0  0  0
    4.2868   -1.6500    0.0000 Cl  0  0  0  0  0  0  0  0  0  0  0  0
    2.8579   -1.6500    0.0000 C   0  0  0  0  0  0  0  0  0  0  0  0
    1.4289   -2.4750    0.0000 C   0  0  0  0  0  0  0  0  0  0  0  0
    0.7145   -2.8875    0.0000 C   0  0  0  0  0  0  0  0  0  0  0  0
    0.0000   -2.4750    0.0000 C   0  0  0  0  0  0  0  0  0  0  0  0
    0.0000   -1.6500    0.0000 C   0  0  0  0  0  0  0  0  0  0  0  0
    2.1434   -2.8875    0.0000 C   0  0  0  0  0  0  0  0  0  0  0  0
    2.8579   -3.3000    0.0000 N   0  0  0  0  0  0  0  0  0  0  0  0
  1  2  1  0  0  0  0
  2  3  1  0  0  0  0
  3  4  2  0  0  0  0
  4  5  1  0  0  0  0
  5  6  2  0  0  0  0
  6  7  1  0  0  0  0
  7  8  1  0  0  0  0
  7  9  1  0  0  0  0
  9 10  2  0  0  0  0
  9 11  1  0  0  0  0
 11 12  1  0  0  0  0
 11 13  2  0  0  0  0
  5 13  1  0  0  0  0
  4 14  1  0  0  0  0
 14 15  2  0  0  0  0
 15 16  1  0  0  0  0
 16 17  2  0  0  0  0
  3 17  1  0  0  0  0
 14 18  1  0  0  0  0
 18 19  3  0  0  0  0
M  END
> <ID>
CPD_5065

$$$$
CPD_5070
  Mrv1822 09091914012D          

 19 20  0  0  0  0            999 V2000
    0.7145   -0.4125    0.0000 C   0  0  0  0  0  0  0  0  0  0  0  0
    0.7145   -1.2375    0.0000 N   0  0  0  0  0  0  0  0  0  0  0  0
    1.4289   -1.6500    0.0000 N   0  0  0  0  0  0  0  0  0  0  0  0
    1.4289   -2.4750    0.0000 C   0  0  0  0  0  0  0  0  0  0  0  0
    0.7145   -2.8875    0.0000 C   0  0  0  0  0  0  0  0  0  0  0  0
    0.0000   -2.4750    0.0000 C   0  0  0  0  0  0  0  0  0  0  0  0
   -0.7145   -2.8875    0.0000 Cl  0  0  0  0  0  0  0  0  0  0  0  0
    0.0000   -1.6500    0.0000 C   0  0  0  0  0  0  0  0  0  0  0  0
   -0.7145   -1.2375    0.0000 O   0  0  0  0  0  0  0  0  0  0  0  0
    2.1434   -2.8875    0.0000 C   0  0  0  0  0  0  0  0  0  0  0  0
    2.8579   -2.4750    0.0000 C   0  0  0  0  0  0  0  0  0  0  0  0
    3.5724   -2.8875    0.0000 C   0  0  0  0  0  0  0  0  0  0  0  0
    4.2868   -2.4750    0.0000 C   0  0  0  0  0  0  0  0  0  0  0  0
    4.2868   -1.6500    0.0000 O   0  0  0  0  0  0  0  0  0  0  0  0
    5.0013   -2.8875    0.0000 O   0  0  0  0  0  0  0  0  0  0  0  0
    3.5724   -3.7125    0.0000 C   0  0  0  0  0  0  0  0  0  0  0  0
    4.2868   -4.1250    0.0000 N   0  0  0  0  0  0  0  0  0  0  0  0
    2.8579   -4.1250    0.0000 C   0  0  0  0  0  0  0  0  0  0  0  0
    2.1434   -3.7125    0.0000 C   0  0  0  0  0  0  0  0  0  0  0  0
  1  2  1  0  0  0  0
  2  3  1  0  0  0  0
  3  4  2  0  0  0  0
  4  5  1  0  0  0  0
  5  6  2  0  0  0  0
  6  7  1  0  0  0  0
  6  8  1  0  0  0  0
  2  8  1  0  0  0  0
  8  9  2  0  0  0  0
  4 10  1  0  0  0  0
 10 11  2  0  0  0  0
 11 12  1  0  0  0  0
 12 13  1  0  0  0  0
 13 14  1  0  0  0  0
 13 15  2  0  0  0  0
 12 16  2  0  0  0  0
 16 17  1  0  0  0  0
 16 18  1  0  0  0  0
 18 19  2  0  0  0  0
 10 19  1  0  0  0  0
M  END
> <ID>
CPD_5070

$$$$
CPD_5075
  Mrv1822 09091914012D          

 28 31  0  0  0  0            999 V2000
    2.7845    0.6979    0.0000 C   0  0  0  0  0  0  0  0  0  0  0  0
    2.0701    1.1104    0.0000 C   0  0  0  0  0  0  0  0  0  0  0  0
    1.3556    0.6979    0.0000 C   0  0  0  0  0  0  0  0  0  0  0  0
    0.6411    1.1104    0.0000 C   0  0  0  0  0  0  0  0  0  0  0  0
    0.6411    1.9354    0.0000 C   0  0  0  0  0  0  0  0  0  0  0  0
    1.3556    2.3479    0.0000 C   0  0  0  0  0  0  0  0  0  0  0  0
    2.0701    1.9354    0.0000 C   0  0  0  0  0  0  0  0  0  0  0  0
   -0.1435    2.1904    0.0000 N   0  0  0  0  0  0  0  0  0  0  0  0
   -0.6284    1.5229    0.0000 C   0  0  0  0  0  0  0  0  0  0  0  0
   -0.1435    0.8555    0.0000 O   0  0  0  0  0  0  0  0  0  0  0  0
   -1.4534    1.5229    0.0000 C   0  0  0  0  0  0  0  0  0  0  0  0
   -1.8659    0.8085    0.0000 C   0  0  0  0  0  0  0  0  0  0  0  0
   -2.6909    0.8085    0.0000 C   0  0  0  0  0  0  0  0  0  0  0  0
   -3.1034    1.5229    0.0000 C   0  0  0  0  0  0  0  0  0  0  0  0
   -2.6909    2.2374    0.0000 C   0  0  0  0  0  0  0  0  0  0  0  0
   -3.1034    2.9519    0.0000 N   0  0  0  0  0  0  0  0  0  0  0  0
   -1.8659    2.2374    0.0000 C   0  0  0  0  0  0  0  0  0  0  0  0
   -1.4534    0.0940    0.0000 C   0  0  0  0  0  0  0  0  0  0  0  0
   -1.8659   -0.6205    0.0000 C   0  0  0  0  0  0  0  0  0  0  0  0
   -2.6909   -0.6205    0.0000 C   0  0  0  0  0  0  0  0  0  0  0  0
   -1.4534   -1.3349    0.0000 C   0  0  0  0  0  0  0  0  0  0  0  0
   -1.8659   -2.0494    0.0000 F   0  0  0  0  0  0  0  0  0  0  0  0
   -0.6284   -1.3349    0.0000 C   0  0  0  0  0  0  0  0  0  0  0  0
   -0.2159   -0.6205    0.0000 C   0  0  0  0  0  0  0  0  0  0  0  0
   -0.6284    0.0940    0.0000 C   0  0  0  0  0  0  0  0  0  0  0  0
    0.6091   -0.6205    0.0000 C   0  0  0  0  0  0  0  0  0  0  0  0
    1.0216   -1.3349    0.0000 O   0  0  0  0  0  0  0  0  0  0  0  0
    1.0216    0.0940    0.0000 O   0  0  0  0  0  0  0  0  0  0  0  0
  1  2  1  0  0  0  0
  2  3  2  0  0  0  0
  3  4  1  0  0  0  0
  4  5  2  0  0  0  0
  5  6  1  0  0  0  0
  6  7  2  0  0  0  0
  2  7  1  0  0  0  0
  5  8  1  0  0  0  0
  8  9  2  0  0  0  0
  9 10  1  0  0  0  0
  4 10  1  0  0  0  0
  9 11  1  0  0  0  0
 11 12  2  0  0  0  0
 12 13  1  0  0  0  0
 13 14  2  0  0  0  0
 14 15  1  0  0  0  0
 15 16  1  0  0  0  0
 15 17  2  0  0  0  0
 11 17  1  0  0  0  0
 12 18  1  0  0  0  0
 18 19  2  0  0  0  0
 19 20  1  0  0  0  0
 19 21  1  0  0  0  0
 21 22  1  0  0  0  0
 21 23  2  0  0  0  0
 23 24  1  0  0  0  0
 24 25  2  0  0  0  0
 18 25  1  0  0  0  0
 24 26  1  0  0  0  0
 26 27  1  0  0  0  0
 26 28  2  0  0  0  0
M  END
> <ID>
CPD_5075

$$$$
CPD_5080
  Mrv1822 09091914012D          

 24 26  0  0  0  0            999 V2000
   -1.4289   -1.6500    0.0000 C   0  0  0  0  0  0  0  0  0  0  0  0
   -1.4289   -2.4750    0.0000 C   0  0  0  0  0  0  0  0  0  0  0  0
   -0.7145   -2.8875    0.0000 C   0  0  0  0  0  0  0  0  0  0  0  0
   -0.7145   -3.7125    0.0000 C   0  0  0  0  0  0  0  0  0  0  0  0
   -1.4289   -4.1250    0.0000 C   0  0  0  0  0  0  0  0  0  0  0  0
   -2.1434   -3.7125    0.0000 C   0  0  0  0  0  0  0  0  0  0  0  0
   -2.1434   -2.8875    0.0000 C   0  0  0  0  0  0  0  0  0  0  0  0
   -2.8579   -2.4750    0.0000 F   0  0  0  0  0  0  0  0  0  0  0  0
   -1.4289   -4.9500    0.0000 C   0  0  0  0  0  0  0  0  0  0  0  0
   -2.1434   -5.3625    0.0000 O   0  0  0  0  0  0  0  0  0  0  0  0
   -0.7145   -5.3625    0.0000 O   0  0  0  0  0  0  0  0  0  0  0  0
    0.0000   -2.4750    0.0000 C   0  0  0  0  0  0  0  0  0  0  0  0
    0.0000   -1.6500    0.0000 N   0  0  0  0  0  0  0  0  0  0  0  0
    0.7145   -1.2375    0.0000 C   0  0  0  0  0  0  0  0  0  0  0  0
    1.4289   -1.6500    0.0000 N   0  0  0  0  0  0  0  0  0  0  0  0
    1.4289   -2.4750    0.0000 C   0  0  0  0  0  0  0  0  0  0  0  0
    0.7145   -2.8875    0.0000 C   0  0  0  0  0  0  0  0  0  0  0  0
    0.7145   -0.4125    0.0000 N   0  0  0  0  0  0  0  0  0  0  0  0
    0.0000   -0.0000    0.0000 C   0  0  0  0  0  0  0  0  0  0  0  0
    0.0000    0.8250    0.0000 C   0  0  0  0  0  0  0  0  0  0  0  0
    0.7145    1.2375    0.0000 C   0  0  0  0  0  0  0  0  0  0  0  0
    0.7145    2.0625    0.0000 O   0  0  0  0  0  0  0  0  0  0  0  0
    1.4289    0.8250    0.0000 C   0  0  0  0  0  0  0  0  0  0  0  0
    1.4289   -0.0000    0.0000 C   0  0  0  0  0  0  0  0  0  0  0  0
  1  2  1  0  0  0  0
  2  3  2  0  0  0  0
  3  4  1  0  0  0  0
  4  5  2  0  0  0  0
  5  6  1  0  0  0  0
  6  7  2  0  0  0  0
  2  7  1  0  0  0  0
  7  8  1  0  0  0  0
  5  9  1  0  0  0  0
  9 10  1  0  0  0  0
  9 11  2  0  0  0  0
  3 12  1  0  0  0  0
 12 13  2  0  0  0  0
 13 14  1  0  0  0  0
 14 15  2  0  0  0  0
 15 16  1  0  0  0  0
 16 17  2  0  0  0  0
 12 17  1  0  0  0  0
 14 18  1  0  0  0  0
 18 19  1  0  0  0  0
 19 20  1  0  0  0  0
 20 21  1  0  0  0  0
 21 22  1  0  0  0  0
 21 23  1  0  0  0  0
 23 24  1  0  0  0  0
 18 24  1  0  0  0  0
M  END
> <ID>
CPD_5080

$$$$
CPD_5085
  Mrv1822 09091914012D          

 23 25  0  0  0  0            999 V2000
    0.0000    0.8250    0.0000 C   0  0  0  0  0  0  0  0  0  0  0  0
    0.0000    0.0000    0.0000 O   0  0  0  0  0  0  0  0  0  0  0  0
    0.7145   -0.4125    0.0000 C   0  0  0  0  0  0  0  0  0  0  0  0
    1.4289   -0.0000    0.0000 O   0  0  0  0  0  0  0  0  0  0  0  0
    0.7145   -1.2375    0.0000 C   0  0  0  0  0  0  0  0  0  0  0  0
    1.4289   -1.6500    0.0000 C   0  0  0  0  0  0  0  0  0  0  0  0
    1.4289   -2.4750    0.0000 C   0  0  0  0  0  0  0  0  0  0  0  0
    0.7145   -2.8875    0.0000 C   0  0  0  0  0  0  0  0  0  0  0  0
    0.7145   -3.7125    0.0000 N   0  0  0  0  0  0  0  0  0  0  0  0
    1.4289   -4.1250    0.0000 C   0  0  0  0  0  0  0  0  0  0  0  0
    1.4289   -4.9500    0.0000 C   0  0  0  0  0  0  0  0  0  0  0  0
    0.7145   -5.3625    0.0000 O   0  0  0  0  0  0  0  0  0  0  0  0
   -0.0000   -4.9500    0.0000 C   0  0  0  0  0  0  0  0  0  0  0  0
    0.0000   -4.1250    0.0000 C   0  0  0  0  0  0  0  0  0  0  0  0
    0.0000   -2.4750    0.0000 C   0  0  0  0  0  0  0  0  0  0  0  0
    0.0000   -1.6500    0.0000 C   0  0  0  0  0  0  0  0  0  0  0  0
   -0.7145   -2.8875    0.0000 C   0  0  0  0  0  0  0  0  0  0  0  0
   -0.7145   -3.7125    0.0000 C   0  0  0  0  0  0  0  0  0  0  0  0
   -1.4289   -4.1250    0.0000 C   0  0  0  0  0  0  0  0  0  0  0  0
   -2.1434   -3.7125    0.0000 C   0  0  0  0  0  0  0  0  0  0  0  0
   -2.1434   -2.8875    0.0000 C   0  0  0  0  0  0  0  0  0  0  0  0
   -2.8579   -2.4750    0.0000 O   0  0  0  0  0  0  0  0  0  0  0  0
   -1.4289   -2.4750    0.0000 C   0  0  0  0  0  0  0  0  0  0  0  0
  1  2  1  0  0  0  0
  2  3  1  0  0  0  0
  3  4  2  0  0  0  0
  3  5  1  0  0  0  0
  5  6  2  0  0  0  0
  6  7  1  0  0  0  0
  7  8  2  0  0  0  0
  8  9  1  0  0  0  0
  9 10  1  0  0  0  0
 10 11  1  0  0  0  0
 11 12  1  0  0  0  0
 12 13  1  0  0  0  0
 13 14  1  0  0  0  0
  9 14  1  0  0  0  0
  8 15  1  0  0  0  0
 15 16  2  0  0  0  0
  5 16  1  0  0  0  0
 15 17  1  0  0  0  0
 17 18  2  0  0  0  0
 18 19  1  0  0  0  0
 19 20  2  0  0  0  0
 20 21  1  0  0  0  0
 21 22  1  0  0  0  0
 21 23  2  0  0  0  0
 17 23  1  0  0  0  0
M  END
> <ID>
CPD_5085

$$$$
CPD_5090
  Mrv1822 09091914012D          

 20 22  0  0  0  0            999 V2000
   -1.5815    9.2199    0.0000 C   0  0  0  0  0  0  0  0  0  0  0  0
   -1.2460    8.4662    0.0000 C   0  0  0  0  0  0  0  0  0  0  0  0
   -1.7309    7.7988    0.0000 N   0  0  0  0  0  0  0  0  0  0  0  0
   -1.4760    7.0141    0.0000 C   0  0  0  0  0  0  0  0  0  0  0  0
   -2.1434    6.5292    0.0000 C   0  0  0  0  0  0  0  0  0  0  0  0
   -2.8109    7.0141    0.0000 C   0  0  0  0  0  0  0  0  0  0  0  0
   -2.5559    7.7988    0.0000 C   0  0  0  0  0  0  0  0  0  0  0  0
   -3.0408    8.4662    0.0000 C   0  0  0  0  0  0  0  0  0  0  0  0
   -3.5258    9.1336    0.0000 N   0  0  0  0  0  0  0  0  0  0  0  0
   -2.1434    5.7042    0.0000 C   0  0  0  0  0  0  0  0  0  0  0  0
   -1.4289    5.2917    0.0000 N   0  0  0  0  0  0  0  0  0  0  0  0
   -1.4289    4.4667    0.0000 C   0  0  0  0  0  0  0  0  0  0  0  0
   -0.7145    4.0542    0.0000 O   0  0  0  0  0  0  0  0  0  0  0  0
   -0.7145    3.2292    0.0000 C   0  0  0  0  0  0  0  0  0  0  0  0
   -0.1311    2.6459    0.0000 C   0  0  0  0  0  0  0  0  0  0  0  0
   -0.7145    2.0625    0.0000 N   0  0  0  0  0  0  0  0  0  0  0  0
   -1.2978    2.6459    0.0000 C   0  0  0  0  0  0  0  0  0  0  0  0
   -2.1434    4.0542    0.0000 C   0  0  0  0  0  0  0  0  0  0  0  0
   -2.8579    4.4667    0.0000 N   0  0  0  0  0  0  0  0  0  0  0  0
   -2.8579    5.2917    0.0000 C   0  0  0  0  0  0  0  0  0  0  0  0
  1  2  1  0  0  0  0
  2  3  1  0  0  0  0
  3  4  1  0  0  0  0
  4  5  2  0  0  0  0
  5  6  1  0  0  0  0
  6  7  2  0  0  0  0
  3  7  1  0  0  0  0
  7  8  1  0  0  0  0
  8  9  3  0  0  0  0
  5 10  1  0  0  0  0
 10 11  2  0  0  0  0
 11 12  1  0  0  0  0
 12 13  1  0  0  0  0
 13 14  1  0  0  0  0
 14 15  1  0  0  0  0
 15 16  1  0  0  0  0
 16 17  1  0  0  0  0
 14 17  1  0  0  0  0
 12 18  2  0  0  0  0
 18 19  1  0  0  0  0
 19 20  2  0  0  0  0
 10 20  1  0  0  0  0
M  END
> <ID>
CPD_5090

$$$$
CPD_5095
  Mrv1822 09091914012D          

 23 25  0  0  0  0            999 V2000
   -2.8579   10.2417    0.0000 C   0  0  0  0  0  0  0  0  0  0  0  0
   -2.8579    9.4167    0.0000 C   0  0  0  0  0  0  0  0  0  0  0  0
   -2.1434    9.0042    0.0000 O   0  0  0  0  0  0  0  0  0  0  0  0
   -2.1434    8.1792    0.0000 C   0  0  0  0  0  0  0  0  0  0  0  0
   -1.4289    7.7667    0.0000 C   0  0  0  0  0  0  0  0  0  0  0  0
   -1.4289    6.9417    0.0000 C   0  0  0  0  0  0  0  0  0  0  0  0
   -2.1434    6.5292    0.0000 C   0  0  0  0  0  0  0  0  0  0  0  0
   -2.8579    6.9417    0.0000 C   0  0  0  0  0  0  0  0  0  0  0  0
   -2.8579    7.7667    0.0000 C   0  0  0  0  0  0  0  0  0  0  0  0
   -3.5724    8.1792    0.0000 C   0  0  0  0  0  0  0  0  0  0  0  0
   -3.5724    9.0042    0.0000 O   0  0  0  0  0  0  0  0  0  0  0  0
   -4.2868    7.7667    0.0000 O   0  0  0  0  0  0  0  0  0  0  0  0
   -2.1434    5.7042    0.0000 C   0  0  0  0  0  0  0  0  0  0  0  0
   -1.4289    5.2917    0.0000 N   0  0  0  0  0  0  0  0  0  0  0  0
   -1.4289    4.4667    0.0000 C   0  0  0  0  0  0  0  0  0  0  0  0
   -0.7145    4.0542    0.0000 O   0  0  0  0  0  0  0  0  0  0  0  0
   -0.7145    3.2292    0.0000 C   0  0  0  0  0  0  0  0  0  0  0  0
   -0.1311    2.6459    0.0000 C   0  0  0  0  0  0  0  0  0  0  0  0
   -0.7145    2.0625    0.0000 N   0  0  0  0  0  0  0  0  0  0  0  0
   -1.2978    2.6459    0.0000 C   0  0  0  0  0  0  0  0  0  0  0  0
   -2.1434    4.0542    0.0000 C   0  0  0  0  0  0  0  0  0  0  0  0
   -2.8579    4.4667    0.0000 N   0  0  0  0  0  0  0  0  0  0  0  0
   -2.8579    5.2917    0.0000 C   0  0  0  0  0  0  0  0  0  0  0  0
  1  2  1  0  0  0  0
  2  3  1  0  0  0  0
  3  4  1  0  0  0  0
  4  5  2  0  0  0  0
  5  6  1  0  0  0  0
  6  7  2  0  0  0  0
  7  8  1  0  0  0  0
  8  9  2  0  0  0  0
  4  9  1  0  0  0  0
  9 10  1  0  0  0  0
 10 11  1  0  0  0  0
 10 12  2  0  0  0  0
  7 13  1  0  0  0  0
 13 14  2  0  0  0  0
 14 15  1  0  0  0  0
 15 16  1  0  0  0  0
 16 17  1  0  0  0  0
 17 18  1  0  0  0  0
 18 19  1  0  0  0  0
 19 20  1  0  0  0  0
 17 20  1  0  0  0  0
 15 21  2  0  0  0  0
 21 22  1  0  0  0  0
 22 23  2  0  0  0  0
 13 23  1  0  0  0  0
M  END
> <ID>
CPD_5095

$$$$
CPD_5100
  Mrv1822 09091914012D          

 23 25  0  0  0  0            999 V2000
   -2.8579   11.0667    0.0000 F   0  0  0  0  0  0  0  0  0  0  0  0
   -2.8579   10.2417    0.0000 C   0  0  0  0  0  0  0  0  0  0  0  0
   -3.6829   10.2417    0.0000 F   0  0  0  0  0  0  0  0  0  0  0  0
   -2.0329   10.2417    0.0000 F   0  0  0  0  0  0  0  0  0  0  0  0
   -2.8579    9.4167    0.0000 C   0  0  0  0  0  0  0  0  0  0  0  0
   -2.1434    9.0042    0.0000 C   0  0  0  0  0  0  0  0  0  0  0  0
   -2.1434    8.1792    0.0000 C   0  0  0  0  0  0  0  0  0  0  0  0
   -1.4289    7.7667    0.0000 C   0  0  0  0  0  0  0  0  0  0  0  0
   -1.4289    6.9417    0.0000 C   0  0  0  0  0  0  0  0  0  0  0  0
   -2.1434    6.5292    0.0000 C   0  0  0  0  0  0  0  0  0  0  0  0
   -2.8579    6.9417    0.0000 C   0  0  0  0  0  0  0  0  0  0  0  0
   -2.8579    7.7667    0.0000 C   0  0  0  0  0  0  0  0  0  0  0  0
   -2.1434    5.7042    0.0000 C   0  0  0  0  0  0  0  0  0  0  0  0
   -1.4289    5.2917    0.0000 N   0  0  0  0  0  0  0  0  0  0  0  0
   -1.4289    4.4667    0.0000 C   0  0  0  0  0  0  0  0  0  0  0  0
   -0.7145    4.0542    0.0000 O   0  0  0  0  0  0  0  0  0  0  0  0
   -0.7145    3.2292    0.0000 C   0  0  0  0  0  0  0  0  0  0  0  0
   -0.1311    2.6459    0.0000 C   0  0  0  0  0  0  0  0  0  0  0  0
   -0.7145    2.0625    0.0000 N   0  0  0  0  0  0  0  0  0  0  0  0
   -1.2978    2.6459    0.0000 C   0  0  0  0  0  0  0  0  0  0  0  0
   -2.1434    4.0542    0.0000 C   0  0  0  0  0  0  0  0  0  0  0  0
   -2.8579    4.4667    0.0000 N   0  0  0  0  0  0  0  0  0  0  0  0
   -2.8579    5.2917    0.0000 C   0  0  0  0  0  0  0  0  0  0  0  0
  1  2  1  0  0  0  0
  2  3  1  0  0  0  0
  2  4  1  0  0  0  0
  2  5  1  0  0  0  0
  5  6  1  0  0  0  0
  6  7  1  0  0  0  0
  7  8  2  0  0  0  0
  8  9  1  0  0  0  0
  9 10  2  0  0  0  0
 10 11  1  0  0  0  0
 11 12  2  0  0  0  0
  7 12  1  0  0  0  0
 10 13  1  0  0  0  0
 13 14  2  0  0  0  0
 14 15  1  0  0  0  0
 15 16  1  0  0  0  0
 16 17  1  0  0  0  0
 17 18  1  0  0  0  0
 18 19  1  0  0  0  0
 19 20  1  0  0  0  0
 17 20  1  0  0  0  0
 15 21  2  0  0  0  0
 21 22  1  0  0  0  0
 22 23  2  0  0  0  0
 13 23  1  0  0  0  0
M  END
> <ID>
CPD_5100

$$$$
CPD_5105
  Mrv1822 09091914012D          

 18 19  0  0  0  0            999 V2000
    0.0000   -0.0000    0.0000 C   0  0  0  0  0  0  0  0  0  0  0  0
    0.7145   -0.4125    0.0000 C   0  0  0  0  0  0  0  0  0  0  0  0
    1.4289   -0.0000    0.0000 N   0  0  0  0  0  0  0  0  0  0  0  0
    0.7145   -1.2375    0.0000 C   0  0  0  0  0  0  0  0  0  0  0  0
    1.4289   -1.6500    0.0000 C   0  0  0  0  0  0  0  0  0  0  0  0
    1.4289   -2.4750    0.0000 C   0  0  0  0  0  0  0  0  0  0  0  0
    2.1434   -2.8875    0.0000 F   0  0  0  0  0  0  0  0  0  0  0  0
    0.7145   -2.8875    0.0000 C   0  0  0  0  0  0  0  0  0  0  0  0
    0.0000   -2.4750    0.0000 C   0  0  0  0  0  0  0  0  0  0  0  0
    0.0000   -1.6500    0.0000 C   0  0  0  0  0  0  0  0  0  0  0  0
   -0.7145   -1.2375    0.0000 Cl  0  0  0  0  0  0  0  0  0  0  0  0
    2.1434   -1.2375    0.0000 C   0  0  0  0  0  0  0  0  0  0  0  0
    2.1434   -0.4125    0.0000 N   0  0  0  0  0  0  0  0  0  0  0  0
    2.8579   -0.0000    0.0000 C   0  0  0  0  0  0  0  0  0  0  0  0
    3.5724   -0.4125    0.0000 C   0  0  0  0  0  0  0  0  0  0  0  0
    4.2868   -0.0000    0.0000 F   0  0  0  0  0  0  0  0  0  0  0  0
    3.5724   -1.2375    0.0000 C   0  0  0  0  0  0  0  0  0  0  0  0
    2.8579   -1.6500    0.0000 C   0  0  0  0  0  0  0  0  0  0  0  0
  1  2  1  0  0  0  0
  2  3  1  0  0  0  0
  2  4  1  0  0  0  0
  4  5  2  0  0  0  0
  5  6  1  0  0  0  0
  6  7  1  0  0  0  0
  6  8  2  0  0  0  0
  8  9  1  0  0  0  0
  9 10  2  0  0  0  0
  4 10  1  0  0  0  0
 10 11  1  0  0  0  0
  5 12  1  0  0  0  0
 12 13  2  0  0  0  0
 13 14  1  0  0  0  0
 14 15  2  0  0  0  0
 15 16  1  0  0  0  0
 15 17  1  0  0  0  0
 17 18  2  0  0  0  0
 12 18  1  0  0  0  0
M  END
> <ID>
CPD_5105

$$$$
CPD_5110
  Mrv1822 09091914012D          

 20 21  0  0  0  0            999 V2000
    0.0000   -0.0000    0.0000 C   0  0  0  0  0  0  0  0  0  0  0  0
    0.7145   -0.4125    0.0000 C   0  0  0  0  0  0  0  0  0  0  0  0
    1.4289    0.0000    0.0000 N   0  0  0  0  0  0  0  0  0  0  0  0
    0.7145   -1.2375    0.0000 C   0  0  0  0  0  0  0  0  0  0  0  0
    0.0000   -1.6500    0.0000 C   0  0  0  0  0  0  0  0  0  0  0  0
    0.0000   -2.4750    0.0000 C   0  0  0  0  0  0  0  0  0  0  0  0
   -0.7145   -2.8875    0.0000 F   0  0  0  0  0  0  0  0  0  0  0  0
    0.7145   -2.8875    0.0000 C   0  0  0  0  0  0  0  0  0  0  0  0
    1.4289   -2.4750    0.0000 C   0  0  0  0  0  0  0  0  0  0  0  0
    1.4289   -1.6500    0.0000 C   0  0  0  0  0  0  0  0  0  0  0  0
    2.1434   -1.2375    0.0000 Cl  0  0  0  0  0  0  0  0  0  0  0  0
   -0.7145   -1.2375    0.0000 C   0  0  0  0  0  0  0  0  0  0  0  0
   -1.4289   -1.6500    0.0000 C   0  0  0  0  0  0  0  0  0  0  0  0
   -1.4289   -2.4750    0.0000 C   0  0  0  0  0  0  0  0  0  0  0  0
   -2.1434   -2.8875    0.0000 O   0  0  0  0  0  0  0  0  0  0  0  0
   -2.1434   -1.2375    0.0000 C   0  0  0  0  0  0  0  0  0  0  0  0
   -2.1434   -0.4125    0.0000 C   0  0  0  0  0  0  0  0  0  0  0  0
   -1.4289   -0.0000    0.0000 C   0  0  0  0  0  0  0  0  0  0  0  0
   -1.4289    0.8250    0.0000 Cl  0  0  0  0  0  0  0  0  0  0  0  0
   -0.7145   -0.4125    0.0000 C   0  0  0  0  0  0  0  0  0  0  0  0
  1  2  1  0  0  0  0
  2  3  1  0  0  0  0
  2  4  1  0  0  0  0
  4  5  2  0  0  0  0
  5  6  1  0  0  0  0
  6  7  1  0  0  0  0
  6  8  2  0  0  0  0
  8  9  1  0  0  0  0
  9 10  2  0  0  0  0
  4 10  1  0  0  0  0
 10 11  1  0  0  0  0
  5 12  1  0  0  0  0
 12 13  2  0  0  0  0
 13 14  1  0  0  0  0
 14 15  1  0  0  0  0
 13 16  1  0  0  0  0
 16 17  2  0  0  0  0
 17 18  1  0  0  0  0
 18 19  1  0  0  0  0
 18 20  2  0  0  0  0
 12 20  1  0  0  0  0
M  END
> <ID>
CPD_5110

$$$$
CPD_5115
  Mrv1822 09091914012D          

 25 27  0  0  0  0            999 V2000
    3.5724   -1.2375    0.0000 C   0  0  0  0  0  0  0  0  0  0  0  0
    4.2868   -1.6500    0.0000 C   0  0  0  0  0  0  0  0  0  0  0  0
    5.0013   -1.2375    0.0000 N   0  0  0  0  0  0  0  0  0  0  0  0
    4.2868   -2.4750    0.0000 C   0  0  0  0  0  0  0  0  0  0  0  0
    5.0013   -2.8875    0.0000 C   0  0  0  0  0  0  0  0  0  0  0  0
    5.0013   -3.7125    0.0000 C   0  0  0  0  0  0  0  0  0  0  0  0
    5.7158   -4.1250    0.0000 F   0  0  0  0  0  0  0  0  0  0  0  0
    4.2868   -4.1250    0.0000 C   0  0  0  0  0  0  0  0  0  0  0  0
    3.5724   -3.7125    0.0000 C   0  0  0  0  0  0  0  0  0  0  0  0
    3.5724   -2.8875    0.0000 C   0  0  0  0  0  0  0  0  0  0  0  0
    2.8579   -2.4750    0.0000 Cl  0  0  0  0  0  0  0  0  0  0  0  0
    5.7158   -2.4750    0.0000 C   0  0  0  0  0  0  0  0  0  0  0  0
    5.7158   -1.6500    0.0000 C   0  0  0  0  0  0  0  0  0  0  0  0
    6.4302   -1.2375    0.0000 C   0  0  0  0  0  0  0  0  0  0  0  0
    7.1447   -1.6500    0.0000 C   0  0  0  0  0  0  0  0  0  0  0  0
    7.8592   -1.2375    0.0000 C   0  0  0  0  0  0  0  0  0  0  0  0
    8.5737   -1.6500    0.0000 N   0  0  0  0  0  0  0  0  0  0  0  0
    9.2881   -1.2375    0.0000 C   0  0  0  0  0  0  0  0  0  0  0  0
   10.0026   -1.6500    0.0000 C   0  0  0  0  0  0  0  0  0  0  0  0
   10.0026   -2.4750    0.0000 C   0  0  0  0  0  0  0  0  0  0  0  0
    9.2881   -2.8875    0.0000 C   0  0  0  0  0  0  0  0  0  0  0  0
    9.2881   -3.7125    0.0000 N   0  0  0  0  0  0  0  0  0  0  0  0
    8.5737   -2.4750    0.0000 C   0  0  0  0  0  0  0  0  0  0  0  0
    7.1447   -2.4750    0.0000 C   0  0  0  0  0  0  0  0  0  0  0  0
    6.4302   -2.8875    0.0000 C   0  0  0  0  0  0  0  0  0  0  0  0
  1  2  1  0  0  0  0
  2  3  1  0  0  0  0
  2  4  1  0  0  0  0
  4  5  2  0  0  0  0
  5  6  1  0  0  0  0
  6  7  1  0  0  0  0
  6  8  2  0  0  0  0
  8  9  1  0  0  0  0
  9 10  2  0  0  0  0
  4 10  1  0  0  0  0
 10 11  1  0  0  0  0
  5 12  1  0  0  0  0
 12 13  2  0  0  0  0
 13 14  1  0  0  0  0
 14 15  2  0  0  0  0
 15 16  1  0  0  0  0
 16 17  1  0  0  0  0
 17 18  1  0  0  0  0
 18 19  1  0  0  0  0
 19 20  1  0  0  0  0
 20 21  1  0  0  0  0
 21 22  1  0  0  0  0
 21 23  1  0  0  0  0
 17 23  1  0  0  0  0
 15 24  1  0  0  0  0
 24 25  2  0  0  0  0
 12 25  1  0  0  0  0
M  END
> <ID>
CPD_5115

$$$$
CPD_5120
  Mrv1822 09091914012D          

 26 28  0  0  0  0            999 V2000
   -2.6909    1.4455    0.0000 N   0  0  0  0  0  0  0  0  0  0  0  0
   -1.8659    1.4455    0.0000 C   0  0  0  0  0  0  0  0  0  0  0  0
   -1.4534    0.7310    0.0000 C   0  0  0  0  0  0  0  0  0  0  0  0
   -1.8659    0.0165    0.0000 C   0  0  0  0  0  0  0  0  0  0  0  0
   -1.4534   -0.6979    0.0000 C   0  0  0  0  0  0  0  0  0  0  0  0
   -0.6284   -0.6979    0.0000 C   0  0  0  0  0  0  0  0  0  0  0  0
   -0.1435   -1.3654    0.0000 C   0  0  0  0  0  0  0  0  0  0  0  0
    0.6411   -1.1104    0.0000 C   0  0  0  0  0  0  0  0  0  0  0  0
    0.6411   -0.2854    0.0000 C   0  0  0  0  0  0  0  0  0  0  0  0
   -0.1435   -0.0305    0.0000 S   0  0  0  0  0  0  0  0  0  0  0  0
    1.3556    0.1271    0.0000 C   0  0  0  0  0  0  0  0  0  0  0  0
    1.3556    0.9521    0.0000 O   0  0  0  0  0  0  0  0  0  0  0  0
    2.0701   -0.2854    0.0000 N   0  0  0  0  0  0  0  0  0  0  0  0
    2.0701   -1.1104    0.0000 C   0  0  0  0  0  0  0  0  0  0  0  0
    1.3556   -1.5229    0.0000 N   0  0  0  0  0  0  0  0  0  0  0  0
   -1.8659   -1.4124    0.0000 C   0  0  0  0  0  0  0  0  0  0  0  0
   -2.6909   -1.4124    0.0000 C   0  0  0  0  0  0  0  0  0  0  0  0
   -3.1034   -0.6979    0.0000 C   0  0  0  0  0  0  0  0  0  0  0  0
   -2.6909    0.0165    0.0000 C   0  0  0  0  0  0  0  0  0  0  0  0
   -1.4534   -2.1269    0.0000 C   0  0  0  0  0  0  0  0  0  0  0  0
   -1.0409   -2.8414    0.0000 F   0  0  0  0  0  0  0  0  0  0  0  0
   -2.1679   -2.5394    0.0000 F   0  0  0  0  0  0  0  0  0  0  0  0
   -0.7390   -1.7144    0.0000 F   0  0  0  0  0  0  0  0  0  0  0  0
   -1.4534    2.1599    0.0000 C   0  0  0  0  0  0  0  0  0  0  0  0
   -1.8659    2.8744    0.0000 O   0  0  0  0  0  0  0  0  0  0  0  0
   -0.6284    2.1599    0.0000 O   0  0  0  0  0  0  0  0  0  0  0  0
  1  2  1  0  0  0  0
  2  3  1  0  0  0  0
  3  4  1  0  0  0  0
  4  5  2  0  0  0  0
  5  6  1  0  0  0  0
  6  7  2  0  0  0  0
  7  8  1  0  0  0  0
  8  9  2  0  0  0  0
  9 10  1  0  0  0  0
  6 10  1  0  0  0  0
  9 11  1  0  0  0  0
 11 12  1  0  0  0  0
 11 13  2  0  0  0  0
 13 14  1  0  0  0  0
 14 15  2  0  0  0  0
  8 15  1  0  0  0  0
  5 16  1  0  0  0  0
 16 17  2  0  0  0  0
 17 18  1  0  0  0  0
 18 19  2  0  0  0  0
  4 19  1  0  0  0  0
 16 20  1  0  0  0  0
 20 21  1  0  0  0  0
 20 22  1  0  0  0  0
 20 23  1  0  0  0  0
  2 24  1  0  0  0  0
 24 25  1  0  0  0  0
 24 26  2  0  0  0  0
M  END
> <ID>
CPD_5120

$$$$
CPD_5125
  Mrv1822 09091914012D          

 19 21  0  0  0  0            999 V2000
    3.2789    2.0625    0.0000 O   0  0  0  0  0  0  0  0  0  0  0  0
    3.2789    1.2375    0.0000 C   0  0  0  0  0  0  0  0  0  0  0  0
    3.9934    0.8250    0.0000 N   0  0  0  0  0  0  0  0  0  0  0  0
    3.9934    0.0000    0.0000 C   0  0  0  0  0  0  0  0  0  0  0  0
    3.2789   -0.4125    0.0000 N   0  0  0  0  0  0  0  0  0  0  0  0
    2.5645    0.0000    0.0000 C   0  0  0  0  0  0  0  0  0  0  0  0
    2.5645    0.8250    0.0000 C   0  0  0  0  0  0  0  0  0  0  0  0
    1.7798    1.0799    0.0000 S   0  0  0  0  0  0  0  0  0  0  0  0
    1.2949    0.4125    0.0000 C   0  0  0  0  0  0  0  0  0  0  0  0
    1.7798   -0.2549    0.0000 C   0  0  0  0  0  0  0  0  0  0  0  0
    0.4699    0.4125    0.0000 C   0  0  0  0  0  0  0  0  0  0  0  0
    0.0574   -0.3020    0.0000 C   0  0  0  0  0  0  0  0  0  0  0  0
   -0.7676   -0.3020    0.0000 C   0  0  0  0  0  0  0  0  0  0  0  0
   -1.1801   -1.0164    0.0000 C   0  0  0  0  0  0  0  0  0  0  0  0
   -0.7676   -1.7309    0.0000 Zn  0  0  0  0  0  0  0  0  0  0  0  0
   -0.3551   -2.4454    0.0000 Br  0  0  0  0  0  0  0  0  0  0  0  0
   -1.1801    0.4125    0.0000 C   0  0  0  0  0  0  0  0  0  0  0  0
   -0.7676    1.1270    0.0000 C   0  0  0  0  0  0  0  0  0  0  0  0
    0.0574    1.1270    0.0000 C   0  0  0  0  0  0  0  0  0  0  0  0
  1  2  1  0  0  0  0
  2  3  2  0  0  0  0
  3  4  1  0  0  0  0
  4  5  2  0  0  0  0
  5  6  1  0  0  0  0
  6  7  2  0  0  0  0
  2  7  1  0  0  0  0
  7  8  1  0  0  0  0
  8  9  1  0  0  0  0
  9 10  2  0  0  0  0
  6 10  1  0  0  0  0
  9 11  1  0  0  0  0
 11 12  2  0  0  0  0
 12 13  1  0  0  0  0
 13 14  1  0  0  0  0
 14 15  1  0  0  0  0
 15 16  1  0  0  0  0
 13 17  2  0  0  0  0
 17 18  1  0  0  0  0
 18 19  2  0  0  0  0
 11 19  1  0  0  0  0
M  END
> <ID>
CPD_5125

$$$$
CPD_5130
  Mrv1822 09091914012D          

 29 33  0  0  0  0            999 V2000
    3.2789    2.0625    0.0000 O   0  0  0  0  0  0  0  0  0  0  0  0
    3.2789    1.2375    0.0000 C   0  0  0  0  0  0  0  0  0  0  0  0
    3.9934    0.8250    0.0000 N   0  0  0  0  0  0  0  0  0  0  0  0
    3.9934    0.0000    0.0000 C   0  0  0  0  0  0  0  0  0  0  0  0
    3.2789   -0.4125    0.0000 N   0  0  0  0  0  0  0  0  0  0  0  0
    2.5645    0.0000    0.0000 C   0  0  0  0  0  0  0  0  0  0  0  0
    2.5645    0.8250    0.0000 C   0  0  0  0  0  0  0  0  0  0  0  0
    1.7798    1.0799    0.0000 S   0  0  0  0  0  0  0  0  0  0  0  0
    1.2949    0.4125    0.0000 C   0  0  0  0  0  0  0  0  0  0  0  0
    1.7798   -0.2549    0.0000 C   0  0  0  0  0  0  0  0  0  0  0  0
    0.4699    0.4125    0.0000 C   0  0  0  0  0  0  0  0  0  0  0  0
    0.0574   -0.3020    0.0000 C   0  0  0  0  0  0  0  0  0  0  0  0
   -0.7676   -0.3020    0.0000 C   0  0  0  0  0  0  0  0  0  0  0  0
   -1.1801    0.4125    0.0000 C   0  0  0  0  0  0  0  0  0  0  0  0
   -0.7676    1.1270    0.0000 C   0  0  0  0  0  0  0  0  0  0  0  0
    0.0574    1.1270    0.0000 C   0  0  0  0  0  0  0  0  0  0  0  0
   -2.0051    0.4125    0.0000 C   0  0  0  0  0  0  0  0  0  0  0  0
   -2.4176    1.1270    0.0000 N   0  0  0  0  0  0  0  0  0  0  0  0
   -3.2426    1.1270    0.0000 C   0  0  0  0  0  0  0  0  0  0  0  0
   -3.6551    1.8414    0.0000 C   0  0  0  0  0  0  0  0  0  0  0  0
   -3.2426    2.5559    0.0000 N   0  0  0  0  0  0  0  0  0  0  0  0
   -2.4176    2.5559    0.0000 C   0  0  0  0  0  0  0  0  0  0  0  0
   -2.0051    1.8414    0.0000 C   0  0  0  0  0  0  0  0  0  0  0  0
   -2.4176   -0.3020    0.0000 C   0  0  0  0  0  0  0  0  0  0  0  0
   -2.0051   -1.0164    0.0000 C   0  0  0  0  0  0  0  0  0  0  0  0
   -2.4176   -1.7309    0.0000 C   0  0  0  0  0  0  0  0  0  0  0  0
   -3.2426   -1.7309    0.0000 C   0  0  0  0  0  0  0  0  0  0  0  0
   -3.6551   -1.0164    0.0000 C   0  0  0  0  0  0  0  0  0  0  0  0
   -3.2426   -0.3020    0.0000 C   0  0  0  0  0  0  0  0  0  0  0  0
  1  2  1  0  0  0  0
  2  3  2  0  0  0  0
  3  4  1  0  0  0  0
  4  5  2  0  0  0  0
  5  6  1  0  0  0  0
  6  7  2  0  0  0  0
  2  7  1  0  0  0  0
  7  8  1  0  0  0  0
  8  9  1  0  0  0  0
  9 10  2  0  0  0  0
  6 10  1  0  0  0  0
  9 11  1  0  0  0  0
 11 12  2  0  0  0  0
 12 13  1  0  0  0  0
 13 14  2  0  0  0  0
 14 15  1  0  0  0  0
 15 16  2  0  0  0  0
 11 16  1  0  0  0  0
 14 17  1  0  0  0  0
 17 18  1  0  0  0  0
 18 19  1  0  0  0  0
 19 20  1  0  0  0  0
 20 21  1  0  0  0  0
 21 22  1  0  0  0  0
 22 23  1  0  0  0  0
 18 23  1  0  0  0  0
 17 24  1  0  0  0  0
 24 25  2  0  0  0  0
 25 26  1  0  0  0  0
 26 27  2  0  0  0  0
 27 28  1  0  0  0  0
 28 29  2  0  0  0  0
 24 29  1  0  0  0  0
M  END
> <ID>
CPD_5130

$$$$
CPD_5135
  Mrv1822 09091914012D          

 19 21  0  0  0  0            999 V2000
    3.2789    2.0625    0.0000 O   0  0  0  0  0  0  0  0  0  0  0  0
    3.2789    1.2375    0.0000 C   0  0  0  0  0  0  0  0  0  0  0  0
    3.9934    0.8250    0.0000 N   0  0  0  0  0  0  0  0  0  0  0  0
    3.9934    0.0000    0.0000 C   0  0  0  0  0  0  0  0  0  0  0  0
    3.2789   -0.4125    0.0000 N   0  0  0  0  0  0  0  0  0  0  0  0
    2.5645    0.0000    0.0000 C   0  0  0  0  0  0  0  0  0  0  0  0
    2.5645    0.8250    0.0000 C   0  0  0  0  0  0  0  0  0  0  0  0
    1.7798    1.0799    0.0000 S   0  0  0  0  0  0  0  0  0  0  0  0
    1.2949    0.4125    0.0000 C   0  0  0  0  0  0  0  0  0  0  0  0
    1.7798   -0.2549    0.0000 C   0  0  0  0  0  0  0  0  0  0  0  0
    0.4699    0.4125    0.0000 C   0  0  0  0  0  0  0  0  0  0  0  0
    0.0574   -0.3020    0.0000 C   0  0  0  0  0  0  0  0  0  0  0  0
   -0.7676   -0.3020    0.0000 C   0  0  0  0  0  0  0  0  0  0  0  0
   -1.1801    0.4125    0.0000 C   0  0  0  0  0  0  0  0  0  0  0  0
   -0.7676    1.1270    0.0000 C   0  0  0  0  0  0  0  0  0  0  0  0
    0.0574    1.1270    0.0000 C   0  0  0  0  0  0  0  0  0  0  0  0
   -2.0051    0.4125    0.0000 Se  0  0  0  0  0  0  0  0  0  0  0  0
   -2.4176   -0.3020    0.0000 O   0  0  0  0  0  0  0  0  0  0  0  0
   -2.4176    1.1270    0.0000 O   0  0  0  0  0  0  0  0  0  0  0  0
  1  2  1  0  0  0  0
  2  3  2  0  0  0  0
  3  4  1  0  0  0  0
  4  5  2  0  0  0  0
  5  6  1  0  0  0  0
  6  7  2  0  0  0  0
  2  7  1  0  0  0  0
  7  8  1  0  0  0  0
  8  9  1  0  0  0  0
  9 10  2  0  0  0  0
  6 10  1  0  0  0  0
  9 11  1  0  0  0  0
 11 12  2  0  0  0  0
 12 13  1  0  0  0  0
 13 14  2  0  0  0  0
 14 15  1  0  0  0  0
 15 16  2  0  0  0  0
 11 16  1  0  0  0  0
 14 17  1  0  0  0  0
 17 18  1  0  0  0  0
 17 19  2  0  0  0  0
M  END
> <ID>
CPD_5135

$$$$
CPD_5140
  Mrv1822 09091914012D          

 33 36  0  0  0  0            999 V2000
    4.2135   -1.7771    0.0000 C   0  0  0  0  0  0  0  0  0  0  0  0
    3.4990   -1.3646    0.0000 O   0  0  0  0  0  0  0  0  0  0  0  0
    3.4990   -0.5396    0.0000 C   0  0  0  0  0  0  0  0  0  0  0  0
    2.7845   -0.1271    0.0000 C   0  0  0  0  0  0  0  0  0  0  0  0
    2.0701   -0.5396    0.0000 N   0  0  0  0  0  0  0  0  0  0  0  0
    2.7845    0.6979    0.0000 C   0  0  0  0  0  0  0  0  0  0  0  0
    3.4990    1.1104    0.0000 C   0  0  0  0  0  0  0  0  0  0  0  0
    4.2135    0.6979    0.0000 C   0  0  0  0  0  0  0  0  0  0  0  0
    4.2135   -0.1271    0.0000 C   0  0  0  0  0  0  0  0  0  0  0  0
    2.0701    1.1104    0.0000 C   0  0  0  0  0  0  0  0  0  0  0  0
    1.3556    0.6979    0.0000 C   0  0  0  0  0  0  0  0  0  0  0  0
    0.6411    1.1104    0.0000 C   0  0  0  0  0  0  0  0  0  0  0  0
    0.6411    1.9354    0.0000 C   0  0  0  0  0  0  0  0  0  0  0  0
    1.3556    2.3479    0.0000 C   0  0  0  0  0  0  0  0  0  0  0  0
    2.0701    1.9354    0.0000 C   0  0  0  0  0  0  0  0  0  0  0  0
   -0.1435    2.1904    0.0000 N   0  0  0  0  0  0  0  0  0  0  0  0
   -0.3984    2.9750    0.0000 C   0  0  0  0  0  0  0  0  0  0  0  0
   -1.2054    3.1465    0.0000 C   0  0  0  0  0  0  0  0  0  0  0  0
   -2.0124    3.3181    0.0000 C   0  0  0  0  0  0  0  0  0  0  0  0
   -0.6284    1.5229    0.0000 C   0  0  0  0  0  0  0  0  0  0  0  0
   -1.4534    1.5229    0.0000 O   0  0  0  0  0  0  0  0  0  0  0  0
   -0.1435    0.8555    0.0000 C   0  0  0  0  0  0  0  0  0  0  0  0
   -0.7508    0.2971    0.0000 O   0  0  0  0  0  0  0  0  0  0  0  0
    0.0196    0.0468    0.0000 C   0  0  0  0  0  0  0  0  0  0  0  0
   -0.5993   -0.4988    0.0000 C   0  0  0  0  0  0  0  0  0  0  0  0
   -1.3812   -0.2357    0.0000 O   0  0  0  0  0  0  0  0  0  0  0  0
   -0.4362   -1.3075    0.0000 C   0  0  0  0  0  0  0  0  0  0  0  0
   -0.9946   -1.9148    0.0000 C   0  0  0  0  0  0  0  0  0  0  0  0
   -1.8142   -1.8200    0.0000 C   0  0  0  0  0  0  0  0  0  0  0  0
   -0.5896   -2.6336    0.0000 O   0  0  0  0  0  0  0  0  0  0  0  0
    0.2191   -2.4705    0.0000 C   0  0  0  0  0  0  0  0  0  0  0  0
    0.3139   -1.6510    0.0000 C   0  0  0  0  0  0  0  0  0  0  0  0
    1.0327   -1.2460    0.0000 C   0  0  0  0  0  0  0  0  0  0  0  0
  1  2  1  0  0  0  0
  2  3  1  0  0  0  0
  3  4  2  0  0  0  0
  4  5  1  0  0  0  0
  4  6  1  0  0  0  0
  6  7  2  0  0  0  0
  7  8  1  0  0  0  0
  8  9  2  0  0  0  0
  3  9  1  0  0  0  0
  6 10  1  0  0  0  0
 10 11  2  0  0  0  0
 11 12  1  0  0  0  0
 12 13  2  0  0  0  0
 13 14  1  0  0  0  0
 14 15  2  0  0  0  0
 10 15  1  0  0  0  0
 13 16  1  0  0  0  0
 16 17  1  0  0  0  0
 17 18  1  0  0  0  0
 18 19  3  0  0  0  0
 16 20  1  0  0  0  0
 20 21  2  0  0  0  0
 20 22  1  0  0  0  0
 12 22  1  0  0  0  0
 22 23  1  0  0  0  0
 22 24  1  0  0  0  0
 24 25  1  0  0  0  0
 25 26  2  0  0  0  0
 25 27  1  0  0  0  0
 27 28  2  0  0  0  0
 28 29  1  0  0  0  0
 28 30  1  0  0  0  0
 30 31  1  0  0  0  0
 31 32  2  0  0  0  0
 27 32  1  0  0  0  0
 32 33  1  0  0  0  0
M  END
> <ID>
CPD_5140

$$$$
CPD_5145
  Mrv1822 09091914012D          

 21 22  0  0  0  0            999 V2000
    0.0000   -4.9500    0.0000 C   0  0  0  0  0  0  0  0  0  0  0  0
    0.7145   -5.3625    0.0000 O   0  0  0  0  0  0  0  0  0  0  0  0
    1.4289   -4.9500    0.0000 C   0  0  0  0  0  0  0  0  0  0  0  0
    2.1434   -5.3625    0.0000 C   0  0  0  0  0  0  0  0  0  0  0  0
    2.8579   -4.9500    0.0000 O   0  0  0  0  0  0  0  0  0  0  0  0
    3.5724   -5.3625    0.0000 C   0  0  0  0  0  0  0  0  0  0  0  0
    4.2868   -4.9500    0.0000 C   0  0  0  0  0  0  0  0  0  0  0  0
    5.0013   -5.3625    0.0000 C   0  0  0  0  0  0  0  0  0  0  0  0
    5.7158   -4.9500    0.0000 Br  0  0  0  0  0  0  0  0  0  0  0  0
    5.0013   -6.1875    0.0000 C   0  0  0  0  0  0  0  0  0  0  0  0
    4.2868   -6.6000    0.0000 C   0  0  0  0  0  0  0  0  0  0  0  0
    3.5724   -6.1875    0.0000 C   0  0  0  0  0  0  0  0  0  0  0  0
    5.7158   -6.6000    0.0000 C   0  0  0  0  0  0  0  0  0  0  0  0
    6.4302   -6.1875    0.0000 C   0  0  0  0  0  0  0  0  0  0  0  0
    7.1447   -6.6000    0.0000 C   0  0  0  0  0  0  0  0  0  0  0  0
    7.1447   -7.4250    0.0000 C   0  0  0  0  0  0  0  0  0  0  0  0
    6.4302   -7.8375    0.0000 C   0  0  0  0  0  0  0  0  0  0  0  0
    6.4302   -8.6625    0.0000 O   0  0  0  0  0  0  0  0  0  0  0  0
    7.1447   -9.0750    0.0000 C   0  0  0  0  0  0  0  0  0  0  0  0
    5.7158   -7.4250    0.0000 C   0  0  0  0  0  0  0  0  0  0  0  0
    5.0013   -7.8375    0.0000 N   0  0  0  0  0  0  0  0  0  0  0  0
  1  2  1  0  0  0  0
  2  3  1  0  0  0  0
  3  4  1  0  0  0  0
  4  5  1  0  0  0  0
  5  6  1  0  0  0  0
  6  7  2  0  0  0  0
  7  8  1  0  0  0  0
  8  9  1  0  0  0  0
  8 10  2  0  0  0  0
 10 11  1  0  0  0  0
 11 12  2  0  0  0  0
  6 12  1  0  0  0  0
 10 13  1  0  0  0  0
 13 14  2  0  0  0  0
 14 15  1  0  0  0  0
 15 16  2  0  0  0  0
 16 17  1  0  0  0  0
 17 18  1  0  0  0  0
 18 19  1  0  0  0  0
 17 20  2  0  0  0  0
 13 20  1  0  0  0  0
 20 21  1  0  0  0  0
M  END
> <ID>
CPD_5145

$$$$
CPD_5150
  Mrv1822 09091914012D          

 34 36  0  0  0  0            999 V2000
   -2.1434    1.2375    0.0000 C   0  0  0  0  0  0  0  0  0  0  0  0
   -1.4289    0.8250    0.0000 O   0  0  0  0  0  0  0  0  0  0  0  0
   -1.4289   -0.0000    0.0000 C   0  0  0  0  0  0  0  0  0  0  0  0
   -0.7145   -0.4125    0.0000 C   0  0  0  0  0  0  0  0  0  0  0  0
   -0.3789    0.3412    0.0000 N   0  0  0  0  0  0  0  0  0  0  0  0
   -0.7145   -1.2375    0.0000 C   0  0  0  0  0  0  0  0  0  0  0  0
   -1.4289   -1.6500    0.0000 C   0  0  0  0  0  0  0  0  0  0  0  0
   -2.1434   -1.2375    0.0000 C   0  0  0  0  0  0  0  0  0  0  0  0
   -2.1434   -0.4125    0.0000 C   0  0  0  0  0  0  0  0  0  0  0  0
    0.0000   -1.6500    0.0000 C   0  0  0  0  0  0  0  0  0  0  0  0
    0.0000   -2.4750    0.0000 C   0  0  0  0  0  0  0  0  0  0  0  0
    0.7145   -2.8875    0.0000 C   0  0  0  0  0  0  0  0  0  0  0  0
    1.4289   -2.4750    0.0000 C   0  0  0  0  0  0  0  0  0  0  0  0
    1.4289   -1.6500    0.0000 N   0  0  0  0  0  0  0  0  0  0  0  0
    0.7145   -1.2375    0.0000 C   0  0  0  0  0  0  0  0  0  0  0  0
    0.7145   -0.4125    0.0000 C   0  0  0  0  0  0  0  0  0  0  0  0
    0.0000   -0.0000    0.0000 C   0  0  0  0  0  0  0  0  0  0  0  0
    0.0000    0.8250    0.0000 C   0  0  0  0  0  0  0  0  0  0  0  0
    0.7145    1.2375    0.0000 C   0  0  0  0  0  0  0  0  0  0  0  0
    1.4289    0.8250    0.0000 C   0  0  0  0  0  0  0  0  0  0  0  0
    2.1434    1.2375    0.0000 O   0  0  0  0  0  0  0  0  0  0  0  0
    2.1434    2.0625    0.0000 C   0  0  0  0  0  0  0  0  0  0  0  0
    1.4289    2.4750    0.0000 C   0  0  0  0  0  0  0  0  0  0  0  0
    2.8579    2.4750    0.0000 C   0  0  0  0  0  0  0  0  0  0  0  0
    3.5724    2.0625    0.0000 O   0  0  0  0  0  0  0  0  0  0  0  0
    2.8579    3.3000    0.0000 O   0  0  0  0  0  0  0  0  0  0  0  0
    1.4289   -0.0000    0.0000 C   0  0  0  0  0  0  0  0  0  0  0  0
    2.1434   -2.8875    0.0000 N   0  0  0  0  0  0  0  0  0  0  0  0
    2.1434   -3.7125    0.0000 C   0  0  0  0  0  0  0  0  0  0  0  0
    2.8579   -2.4750    0.0000 C   0  0  0  0  0  0  0  0  0  0  0  0
   -0.7145   -2.8875    0.0000 C   0  0  0  0  0  0  0  0  0  0  0  0
   -1.4289   -3.3000    0.0000 F   0  0  0  0  0  0  0  0  0  0  0  0
   -1.1270   -2.1730    0.0000 F   0  0  0  0  0  0  0  0  0  0  0  0
   -0.3020   -3.6020    0.0000 F   0  0  0  0  0  0  0  0  0  0  0  0
  1  2  1  0  0  0  0
  2  3  1  0  0  0  0
  3  4  2  0  0  0  0
  4  5  1  0  0  0  0
  4  6  1  0  0  0  0
  6  7  2  0  0  0  0
  7  8  1  0  0  0  0
  8  9  2  0  0  0  0
  3  9  1  0  0  0  0
  6 10  1  0  0  0  0
 10 11  2  0  0  0  0
 11 12  1  0  0  0  0
 12 13  2  0  0  0  0
 13 14  1  0  0  0  0
 14 15  2  0  0  0  0
 10 15  1  0  0  0  0
 15 16  1  0  0  0  0
 16 17  2  0  0  0  0
 17 18  1  0  0  0  0
 18 19  2  0  0  0  0
 19 20  1  0  0  0  0
 20 21  1  0  0  0  0
 21 22  1  0  0  0  0
 22 23  1  0  0  0  0
 22 24  1  0  0  0  0
 24 25  1  0  0  0  0
 24 26  2  0  0  0  0
 20 27  2  0  0  0  0
 16 27  1  0  0  0  0
 13 28  1  0  0  0  0
 28 29  1  0  0  0  0
 28 30  1  0  0  0  0
 11 31  1  0  0  0  0
 31 32  1  0  0  0  0
 31 33  1  0  0  0  0
 31 34  1  0  0  0  0
M  END
> <ID>
CPD_5150

$$$$
CPD_5155
  Mrv1822 09091914012D          

 24 26  0  0  0  0            999 V2000
    3.5724   -0.4125    0.0000 O   0  0  0  0  0  0  0  0  0  0  0  0
    3.5724   -1.2375    0.0000 C   0  0  0  0  0  0  0  0  0  0  0  0
    4.2868   -1.6500    0.0000 C   0  0  0  0  0  0  0  0  0  0  0  0
    4.2868   -2.4750    0.0000 C   0  0  0  0  0  0  0  0  0  0  0  0
    3.5724   -2.8875    0.0000 C   0  0  0  0  0  0  0  0  0  0  0  0
    3.5724   -3.7125    0.0000 C   0  0  0  0  0  0  0  0  0  0  0  0
    4.2868   -4.1250    0.0000 C   0  0  0  0  0  0  0  0  0  0  0  0
    4.2868   -4.9500    0.0000 C   0  0  0  0  0  0  0  0  0  0  0  0
    5.0013   -5.3625    0.0000 C   0  0  0  0  0  0  0  0  0  0  0  0
    5.7158   -4.9500    0.0000 C   0  0  0  0  0  0  0  0  0  0  0  0
    5.7158   -4.1250    0.0000 C   0  0  0  0  0  0  0  0  0  0  0  0
    6.4302   -3.7125    0.0000 Br  0  0  0  0  0  0  0  0  0  0  0  0
    5.0013   -3.7125    0.0000 C   0  0  0  0  0  0  0  0  0  0  0  0
    3.5724   -5.3625    0.0000 C   0  0  0  0  0  0  0  0  0  0  0  0
    3.5724   -6.1875    0.0000 C   0  0  0  0  0  0  0  0  0  0  0  0
    4.2868   -6.6000    0.0000 C   0  0  0  0  0  0  0  0  0  0  0  0
    5.0013   -6.1875    0.0000 C   0  0  0  0  0  0  0  0  0  0  0  0
    5.7158   -5.7750    0.0000 N   0  0  0  0  0  0  0  0  0  0  0  0
    2.8579   -6.6000    0.0000 N   0  0  0  0  0  0  0  0  0  0  0  0
    2.1434   -6.1875    0.0000 C   0  0  0  0  0  0  0  0  0  0  0  0
    2.1434   -5.3625    0.0000 C   0  0  0  0  0  0  0  0  0  0  0  0
    2.8579   -4.9500    0.0000 N   0  0  0  0  0  0  0  0  0  0  0  0
    2.8579   -2.4750    0.0000 C   0  0  0  0  0  0  0  0  0  0  0  0
    2.8579   -1.6500    0.0000 C   0  0  0  0  0  0  0  0  0  0  0  0
  1  2  1  0  0  0  0
  2  3  2  0  0  0  0
  3  4  1  0  0  0  0
  4  5  2  0  0  0  0
  5  6  1  0  0  0  0
  6  7  1  0  0  0  0
  7  8  2  0  0  0  0
  8  9  1  0  0  0  0
  9 10  2  0  0  0  0
 10 11  1  0  0  0  0
 11 12  1  0  0  0  0
 11 13  2  0  0  0  0
  7 13  1  0  0  0  0
  8 14  1  0  0  0  0
 14 15  2  0  0  0  0
 15 16  1  0  0  0  0
 16 17  1  0  0  0  0
 17 18  3  0  0  0  0
 15 19  1  0  0  0  0
 19 20  2  0  0  0  0
 20 21  1  0  0  0  0
 21 22  2  0  0  0  0
 14 22  1  0  0  0  0
  5 23  1  0  0  0  0
 23 24  2  0  0  0  0
  2 24  1  0  0  0  0
M  END
> <ID>
CPD_5155

$$$$
CPD_5160
  Mrv1822 09091914012D          

 24 26  0  0  0  0            999 V2000
   -0.7145   -0.4125    0.0000 N   0  0  0  0  0  0  0  0  0  0  0  0
   -0.7145   -1.2375    0.0000 C   0  0  0  0  0  0  0  0  0  0  0  0
    0.0000   -1.6500    0.0000 C   0  0  0  0  0  0  0  0  0  0  0  0
    0.0000   -2.4750    0.0000 C   0  0  0  0  0  0  0  0  0  0  0  0
    0.7145   -2.8875    0.0000 C   0  0  0  0  0  0  0  0  0  0  0  0
    0.7145   -3.7125    0.0000 C   0  0  0  0  0  0  0  0  0  0  0  0
    0.0000   -4.1250    0.0000 C   0  0  0  0  0  0  0  0  0  0  0  0
   -0.7145   -3.7125    0.0000 C   0  0  0  0  0  0  0  0  0  0  0  0
   -0.7145   -2.8875    0.0000 C   0  0  0  0  0  0  0  0  0  0  0  0
    1.4289   -2.4750    0.0000 C   0  0  0  0  0  0  0  0  0  0  0  0
    1.4289   -1.6500    0.0000 C   0  0  0  0  0  0  0  0  0  0  0  0
    0.7145   -1.2375    0.0000 C   0  0  0  0  0  0  0  0  0  0  0  0
    0.7145   -0.4125    0.0000 C   0  0  0  0  0  0  0  0  0  0  0  0
    0.0000    0.0000    0.0000 C   0  0  0  0  0  0  0  0  0  0  0  0
    0.0000    0.8250    0.0000 C   0  0  0  0  0  0  0  0  0  0  0  0
    0.7145    1.2375    0.0000 C   0  0  0  0  0  0  0  0  0  0  0  0
    0.7145    2.0625    0.0000 O   0  0  0  0  0  0  0  0  0  0  0  0
    1.4289    0.8250    0.0000 C   0  0  0  0  0  0  0  0  0  0  0  0
    1.4289   -0.0000    0.0000 C   0  0  0  0  0  0  0  0  0  0  0  0
    2.1434   -1.2375    0.0000 C   0  0  0  0  0  0  0  0  0  0  0  0
    2.8579   -1.6500    0.0000 C   0  0  0  0  0  0  0  0  0  0  0  0
    3.5724   -1.2375    0.0000 Br  0  0  0  0  0  0  0  0  0  0  0  0
    2.8579   -2.4750    0.0000 C   0  0  0  0  0  0  0  0  0  0  0  0
    2.1434   -2.8875    0.0000 C   0  0  0  0  0  0  0  0  0  0  0  0
  1  2  1  0  0  0  0
  2  3  1  0  0  0  0
  3  4  1  0  0  0  0
  4  5  2  0  0  0  0
  5  6  1  0  0  0  0
  6  7  2  0  0  0  0
  7  8  1  0  0  0  0
  8  9  2  0  0  0  0
  4  9  1  0  0  0  0
  5 10  1  0  0  0  0
 10 11  2  0  0  0  0
 11 12  1  0  0  0  0
 12 13  1  0  0  0  0
 13 14  2  0  0  0  0
 14 15  1  0  0  0  0
 15 16  2  0  0  0  0
 16 17  1  0  0  0  0
 16 18  1  0  0  0  0
 18 19  2  0  0  0  0
 13 19  1  0  0  0  0
 11 20  1  0  0  0  0
 20 21  2  0  0  0  0
 21 22  1  0  0  0  0
 21 23  1  0  0  0  0
 23 24  2  0  0  0  0
 10 24  1  0  0  0  0
M  END
> <ID>
CPD_5160

$$$$
CPD_5165
  Mrv1822 09091914012D          

 30 33  0  0  0  0            999 V2000
   -2.8579   -1.6500    0.0000 C   0  0  0  0  0  0  0  0  0  0  0  0
   -2.1434   -1.2375    0.0000 O   0  0  0  0  0  0  0  0  0  0  0  0
   -1.4289   -1.6500    0.0000 C   0  0  0  0  0  0  0  0  0  0  0  0
   -1.4289   -2.4750    0.0000 O   0  0  0  0  0  0  0  0  0  0  0  0
   -0.7145   -1.2375    0.0000 C   0  0  0  0  0  0  0  0  0  0  0  0
    0.0000   -1.6500    0.0000 C   0  0  0  0  0  0  0  0  0  0  0  0
    0.7145   -1.2375    0.0000 C   0  0  0  0  0  0  0  0  0  0  0  0
    0.7145   -0.4125    0.0000 C   0  0  0  0  0  0  0  0  0  0  0  0
    1.4289   -0.0000    0.0000 C   0  0  0  0  0  0  0  0  0  0  0  0
    2.1434   -0.4125    0.0000 N   0  0  0  0  0  0  0  0  0  0  0  0
    2.8579   -0.0000    0.0000 C   0  0  0  0  0  0  0  0  0  0  0  0
    3.5724   -0.4125    0.0000 C   0  0  0  0  0  0  0  0  0  0  0  0
    4.2868   -0.0000    0.0000 C   0  0  0  0  0  0  0  0  0  0  0  0
    5.0013   -0.4125    0.0000 C   0  0  0  0  0  0  0  0  0  0  0  0
    5.0013   -1.2375    0.0000 C   0  0  0  0  0  0  0  0  0  0  0  0
    4.2868   -1.6500    0.0000 C   0  0  0  0  0  0  0  0  0  0  0  0
    3.5724   -1.2375    0.0000 C   0  0  0  0  0  0  0  0  0  0  0  0
    2.1434   -1.2375    0.0000 C   0  0  0  0  0  0  0  0  0  0  0  0
    1.4289   -1.6500    0.0000 C   0  0  0  0  0  0  0  0  0  0  0  0
    0.0000   -0.0000    0.0000 C   0  0  0  0  0  0  0  0  0  0  0  0
   -0.7145   -0.4125    0.0000 C   0  0  0  0  0  0  0  0  0  0  0  0
    0.0000   -2.4750    0.0000 C   0  0  0  0  0  0  0  0  0  0  0  0
    0.7145   -2.8875    0.0000 C   0  0  0  0  0  0  0  0  0  0  0  0
    1.4289   -2.4750    0.0000 C   0  0  0  0  0  0  0  0  0  0  0  0
    0.7145   -3.7125    0.0000 C   0  0  0  0  0  0  0  0  0  0  0  0
    0.0000   -4.1250    0.0000 C   0  0  0  0  0  0  0  0  0  0  0  0
   -0.7145   -3.7125    0.0000 C   0  0  0  0  0  0  0  0  0  0  0  0
   -1.4289   -4.1250    0.0000 O   0  0  0  0  0  0  0  0  0  0  0  0
   -0.7145   -2.8875    0.0000 C   0  0  0  0  0  0  0  0  0  0  0  0
   -1.5350   -2.9737    0.0000 N   0  0  0  0  0  0  0  0  0  0  0  0
  1  2  1  0  0  0  0
  2  3  1  0  0  0  0
  3  4  2  0  0  0  0
  3  5  1  0  0  0  0
  5  6  2  0  0  0  0
  6  7  1  0  0  0  0
  7  8  2  0  0  0  0
  8  9  1  0  0  0  0
  9 10  1  0  0  0  0
 10 11  1  0  0  0  0
 11 12  1  0  0  0  0
 12 13  2  0  0  0  0
 13 14  1  0  0  0  0
 14 15  2  0  0  0  0
 15 16  1  0  0  0  0
 16 17  2  0  0  0  0
 12 17  1  0  0  0  0
 10 18  1  0  0  0  0
 18 19  1  0  0  0  0
  7 19  1  0  0  0  0
  8 20  1  0  0  0  0
 20 21  2  0  0  0  0
  5 21  1  0  0  0  0
  6 22  1  0  0  0  0
 22 23  2  0  0  0  0
 23 24  1  0  0  0  0
 23 25  1  0  0  0  0
 25 26  2  0  0  0  0
 26 27  1  0  0  0  0
 27 28  1  0  0  0  0
 27 29  2  0  0  0  0
 22 29  1  0  0  0  0
 29 30  1  0  0  0  0
M  END
> <ID>
CPD_5165

$$$$
CPD_5170
  Mrv1822 09091914012D          

 23 25  0  0  0  0            999 V2000
    0.8212    3.5277    0.0000 C   0  0  0  0  0  0  0  0  0  0  0  0
    0.8212    4.3527    0.0000 C   0  0  0  0  0  0  0  0  0  0  0  0
    0.1067    4.7652    0.0000 C   0  0  0  0  0  0  0  0  0  0  0  0
    0.1067    5.5902    0.0000 C   0  0  0  0  0  0  0  0  0  0  0  0
   -0.6078    6.0027    0.0000 N   0  0  0  0  0  0  0  0  0  0  0  0
    0.8212    6.0027    0.0000 C   0  0  0  0  0  0  0  0  0  0  0  0
    0.8212    6.8277    0.0000 O   0  0  0  0  0  0  0  0  0  0  0  0
    1.5356    5.5902    0.0000 C   0  0  0  0  0  0  0  0  0  0  0  0
    1.5356    4.7652    0.0000 C   0  0  0  0  0  0  0  0  0  0  0  0
   -0.6078    4.3527    0.0000 C   0  0  0  0  0  0  0  0  0  0  0  0
   -0.6078    3.5277    0.0000 C   0  0  0  0  0  0  0  0  0  0  0  0
   -1.3222    3.1152    0.0000 C   0  0  0  0  0  0  0  0  0  0  0  0
   -1.3222    2.2902    0.0000 N   0  0  0  0  0  0  0  0  0  0  0  0
   -0.6548    1.8053    0.0000 C   0  0  0  0  0  0  0  0  0  0  0  0
   -0.9097    1.0206    0.0000 C   0  0  0  0  0  0  0  0  0  0  0  0
   -1.7347    1.0206    0.0000 C   0  0  0  0  0  0  0  0  0  0  0  0
   -1.9897    1.8053    0.0000 C   0  0  0  0  0  0  0  0  0  0  0  0
   -2.0367    3.5277    0.0000 C   0  0  0  0  0  0  0  0  0  0  0  0
   -2.0367    4.3527    0.0000 C   0  0  0  0  0  0  0  0  0  0  0  0
   -1.3222    4.7652    0.0000 C   0  0  0  0  0  0  0  0  0  0  0  0
   -2.7512    3.1152    0.0000 C   0  0  0  0  0  0  0  0  0  0  0  0
   -3.4656    3.5277    0.0000 O   0  0  0  0  0  0  0  0  0  0  0  0
   -2.7512    2.2902    0.0000 O   0  0  0  0  0  0  0  0  0  0  0  0
  1  2  1  0  0  0  0
  2  3  2  0  0  0  0
  3  4  1  0  0  0  0
  4  5  1  0  0  0  0
  4  6  2  0  0  0  0
  6  7  1  0  0  0  0
  6  8  1  0  0  0  0
  8  9  2  0  0  0  0
  2  9  1  0  0  0  0
  3 10  1  0  0  0  0
 10 11  2  0  0  0  0
 11 12  1  0  0  0  0
 12 13  1  0  0  0  0
 13 14  1  0  0  0  0
 14 15  1  0  0  0  0
 15 16  1  0  0  0  0
 16 17  1  0  0  0  0
 13 17  1  0  0  0  0
 12 18  2  0  0  0  0
 18 19  1  0  0  0  0
 19 20  2  0  0  0  0
 10 20  1  0  0  0  0
 18 21  1  0  0  0  0
 21 22  1  0  0  0  0
 21 23  2  0  0  0  0
M  END
> <ID>
CPD_5170

$$$$
CPD_5175
  Mrv1822 09091914012D          

 38 42  0  0  0  0            999 V2000
   -0.7145   -2.8875    0.0000 C   0  0  0  0  0  0  0  0  0  0  0  0
    0.0000   -2.4750    0.0000 C   0  0  0  0  0  0  0  0  0  0  0  0
    0.0000   -1.6500    0.0000 O   0  0  0  0  0  0  0  0  0  0  0  0
    0.7145   -1.2375    0.0000 C   0  0  0  0  0  0  0  0  0  0  0  0
    0.7145   -0.4125    0.0000 C   0  0  0  0  0  0  0  0  0  0  0  0
    0.0000    0.0000    0.0000 O   0  0  0  0  0  0  0  0  0  0  0  0
   -0.7145   -0.4125    0.0000 C   0  0  0  0  0  0  0  0  0  0  0  0
   -1.4289    0.0000    0.0000 C   0  0  0  0  0  0  0  0  0  0  0  0
    1.4289    0.0000    0.0000 C   0  0  0  0  0  0  0  0  0  0  0  0
    2.1434   -0.4125    0.0000 C   0  0  0  0  0  0  0  0  0  0  0  0
    2.8579    0.0000    0.0000 C   0  0  0  0  0  0  0  0  0  0  0  0
    2.8579    0.8250    0.0000 O   0  0  0  0  0  0  0  0  0  0  0  0
    3.5724   -0.4125    0.0000 N   0  0  0  0  0  0  0  0  0  0  0  0
    4.2868   -0.0000    0.0000 C   0  0  0  0  0  0  0  0  0  0  0  0
    5.0013   -0.4125    0.0000 C   0  0  0  0  0  0  0  0  0  0  0  0
    5.7158   -0.0000    0.0000 C   0  0  0  0  0  0  0  0  0  0  0  0
    6.4302   -0.4125    0.0000 C   0  0  0  0  0  0  0  0  0  0  0  0
    6.4302   -1.2375    0.0000 C   0  0  0  0  0  0  0  0  0  0  0  0
    5.7158   -1.6500    0.0000 C   0  0  0  0  0  0  0  0  0  0  0  0
    5.0013   -1.2375    0.0000 C   0  0  0  0  0  0  0  0  0  0  0  0
    7.1447   -1.6500    0.0000 C   0  0  0  0  0  0  0  0  0  0  0  0
    7.8592   -1.2375    0.0000 C   0  0  0  0  0  0  0  0  0  0  0  0
    8.5737   -1.6500    0.0000 C   0  0  0  0  0  0  0  0  0  0  0  0
    8.5737   -2.4750    0.0000 C   0  0  0  0  0  0  0  0  0  0  0  0
    7.8592   -2.8875    0.0000 C   0  0  0  0  0  0  0  0  0  0  0  0
    7.1447   -2.4750    0.0000 C   0  0  0  0  0  0  0  0  0  0  0  0
    9.2881   -2.8875    0.0000 N   0  0  0  0  0  0  0  0  0  0  0  0
   10.0418   -2.5519    0.0000 N   0  0  0  0  0  0  0  0  0  0  0  0
   10.5938   -3.1650    0.0000 C   0  0  0  0  0  0  0  0  0  0  0  0
   11.4143   -3.0788    0.0000 N   0  0  0  0  0  0  0  0  0  0  0  0
   10.1813   -3.8795    0.0000 C   0  0  0  0  0  0  0  0  0  0  0  0
    9.3744   -3.7080    0.0000 C   0  0  0  0  0  0  0  0  0  0  0  0
    8.7613   -4.2600    0.0000 O   0  0  0  0  0  0  0  0  0  0  0  0
    3.5724   -1.2375    0.0000 C   0  0  0  0  0  0  0  0  0  0  0  0
    4.2868   -1.6500    0.0000 S   0  0  0  0  0  0  0  0  0  0  0  0
    2.8579   -1.6500    0.0000 N   0  0  0  0  0  0  0  0  0  0  0  0
    2.1434   -1.2375    0.0000 C   0  0  0  0  0  0  0  0  0  0  0  0
    1.4289   -1.6500    0.0000 C   0  0  0  0  0  0  0  0  0  0  0  0
  1  2  1  0  0  0  0
  2  3  1  0  0  0  0
  3  4  1  0  0  0  0
  4  5  2  0  0  0  0
  5  6  1  0  0  0  0
  6  7  1  0  0  0  0
  7  8  1  0  0  0  0
  5  9  1  0  0  0  0
  9 10  2  0  0  0  0
 10 11  1  0  0  0  0
 11 12  2  0  0  0  0
 11 13  1  0  0  0  0
 13 14  1  0  0  0  0
 14 15  1  0  0  0  0
 15 16  2  0  0  0  0
 16 17  1  0  0  0  0
 17 18  2  0  0  0  0
 18 19  1  0  0  0  0
 19 20  2  0  0  0  0
 15 20  1  0  0  0  0
 18 21  1  0  0  0  0
 21 22  2  0  0  0  0
 22 23  1  0  0  0  0
 23 24  2  0  0  0  0
 24 25  1  0  0  0  0
 25 26  2  0  0  0  0
 21 26  1  0  0  0  0
 24 27  1  0  0  0  0
 27 28  1  0  0  0  0
 28 29  2  0  0  0  0
 29 30  1  0  0  0  0
 29 31  1  0  0  0  0
 31 32  1  0  0  0  0
 27 32  1  0  0  0  0
 32 33  2  0  0  0  0
 13 34  1  0  0  0  0
 34 35  2  0  0  0  0
 34 36  1  0  0  0  0
 36 37  1  0  0  0  0
 10 37  1  0  0  0  0
 37 38  2  0  0  0  0
  4 38  1  0  0  0  0
M  END
> <ID>
CPD_5175

$$$$
CPD_5180
  Mrv1822 09091914012D          

 39 43  0  0  0  0            999 V2000
   -0.7145   -2.8875    0.0000 C   0  0  0  0  0  0  0  0  0  0  0  0
    0.0000   -2.4750    0.0000 C   0  0  0  0  0  0  0  0  0  0  0  0
    0.0000   -1.6500    0.0000 O   0  0  0  0  0  0  0  0  0  0  0  0
    0.7145   -1.2375    0.0000 C   0  0  0  0  0  0  0  0  0  0  0  0
    0.7145   -0.4125    0.0000 C   0  0  0  0  0  0  0  0  0  0  0  0
    0.0000    0.0000    0.0000 O   0  0  0  0  0  0  0  0  0  0  0  0
   -0.7145   -0.4125    0.0000 C   0  0  0  0  0  0  0  0  0  0  0  0
   -1.4289    0.0000    0.0000 C   0  0  0  0  0  0  0  0  0  0  0  0
    1.4289    0.0000    0.0000 C   0  0  0  0  0  0  0  0  0  0  0  0
    2.1434   -0.4125    0.0000 C   0  0  0  0  0  0  0  0  0  0  0  0
    2.8579    0.0000    0.0000 C   0  0  0  0  0  0  0  0  0  0  0  0
    2.8579    0.8250    0.0000 O   0  0  0  0  0  0  0  0  0  0  0  0
    3.5724   -0.4125    0.0000 N   0  0  0  0  0  0  0  0  0  0  0  0
    4.2868   -0.0000    0.0000 C   0  0  0  0  0  0  0  0  0  0  0  0
    5.0013   -0.4125    0.0000 C   0  0  0  0  0  0  0  0  0  0  0  0
    5.7158   -0.0000    0.0000 C   0  0  0  0  0  0  0  0  0  0  0  0
    6.4302   -0.4125    0.0000 C   0  0  0  0  0  0  0  0  0  0  0  0
    6.4302   -1.2375    0.0000 C   0  0  0  0  0  0  0  0  0  0  0  0
    5.7158   -1.6500    0.0000 C   0  0  0  0  0  0  0  0  0  0  0  0
    5.0013   -1.2375    0.0000 C   0  0  0  0  0  0  0  0  0  0  0  0
    7.1447   -1.6500    0.0000 C   0  0  0  0  0  0  0  0  0  0  0  0
    7.8592   -1.2375    0.0000 C   0  0  0  0  0  0  0  0  0  0  0  0
    8.5737   -1.6500    0.0000 C   0  0  0  0  0  0  0  0  0  0  0  0
    9.2881   -1.2375    0.0000 N   0  0  0  0  0  0  0  0  0  0  0  0
    8.5737   -2.4750    0.0000 C   0  0  0  0  0  0  0  0  0  0  0  0
    7.8592   -2.8875    0.0000 N   0  0  0  0  0  0  0  0  0  0  0  0
    7.1447   -2.4750    0.0000 C   0  0  0  0  0  0  0  0  0  0  0  0
    9.2881   -2.8875    0.0000 N   0  0  0  0  0  0  0  0  0  0  0  0
    9.9698   -2.4228    0.0000 C   0  0  0  0  0  0  0  0  0  0  0  0
   10.7581   -2.6659    0.0000 C   0  0  0  0  0  0  0  0  0  0  0  0
   11.0595   -3.4339    0.0000 C   0  0  0  0  0  0  0  0  0  0  0  0
   10.6470   -4.1484    0.0000 C   0  0  0  0  0  0  0  0  0  0  0  0
    9.8312   -4.2713    0.0000 C   0  0  0  0  0  0  0  0  0  0  0  0
    9.2265   -3.7102    0.0000 C   0  0  0  0  0  0  0  0  0  0  0  0
    3.5724   -1.2375    0.0000 C   0  0  0  0  0  0  0  0  0  0  0  0
    4.2868   -1.6500    0.0000 S   0  0  0  0  0  0  0  0  0  0  0  0
    2.8579   -1.6500    0.0000 N   0  0  0  0  0  0  0  0  0  0  0  0
    2.1434   -1.2375    0.0000 C   0  0  0  0  0  0  0  0  0  0  0  0
    1.4289   -1.6500    0.0000 C   0  0  0  0  0  0  0  0  0  0  0  0
  1  2  1  0  0  0  0
  2  3  1  0  0  0  0
  3  4  1  0  0  0  0
  4  5  2  0  0  0  0
  5  6  1  0  0  0  0
  6  7  1  0  0  0  0
  7  8  1  0  0  0  0
  5  9  1  0  0  0  0
  9 10  2  0  0  0  0
 10 11  1  0  0  0  0
 11 12  2  0  0  0  0
 11 13  1  0  0  0  0
 13 14  1  0  0  0  0
 14 15  1  0  0  0  0
 15 16  2  0  0  0  0
 16 17  1  0  0  0  0
 17 18  2  0  0  0  0
 18 19  1  0  0  0  0
 19 20  2  0  0  0  0
 15 20  1  0  0  0  0
 18 21  1  0  0  0  0
 21 22  2  0  0  0  0
 22 23  1  0  0  0  0
 23 24  1  0  0  0  0
 23 25  2  0  0  0  0
 25 26  1  0  0  0  0
 26 27  2  0  0  0  0
 21 27  1  0  0  0  0
 25 28  1  0  0  0  0
 28 29  1  0  0  0  0
 29 30  1  0  0  0  0
 30 31  1  0  0  0  0
 31 32  1  0  0  0  0
 32 33  1  0  0  0  0
 33 34  1  0  0  0  0
 28 34  1  0  0  0  0
 13 35  1  0  0  0  0
 35 36  2  0  0  0  0
 35 37  1  0  0  0  0
 37 38  1  0  0  0  0
 10 38  1  0  0  0  0
 38 39  2  0  0  0  0
  4 39  1  0  0  0  0
M  END
> <ID>
CPD_5180

$$$$
CPD_5185
  Mrv1822 09091914012D          

 33 35  0  0  0  0            999 V2000
    4.2868    0.0000    0.0000 C   0  0  0  0  0  0  0  0  0  0  0  0
    3.5724   -0.4125    0.0000 C   0  0  0  0  0  0  0  0  0  0  0  0
    3.5724   -1.2375    0.0000 O   0  0  0  0  0  0  0  0  0  0  0  0
    2.8579   -1.6500    0.0000 C   0  0  0  0  0  0  0  0  0  0  0  0
    2.1434   -1.2375    0.0000 O   0  0  0  0  0  0  0  0  0  0  0  0
    2.8579   -2.4750    0.0000 C   0  0  0  0  0  0  0  0  0  0  0  0
    3.5724   -2.8875    0.0000 C   0  0  0  0  0  0  0  0  0  0  0  0
    4.2868   -2.4750    0.0000 C   0  0  0  0  0  0  0  0  0  0  0  0
    3.5724   -3.7125    0.0000 N   0  0  0  0  0  0  0  0  0  0  0  0
    2.8579   -4.1250    0.0000 C   0  0  0  0  0  0  0  0  0  0  0  0
    2.8579   -4.9500    0.0000 O   0  0  0  0  0  0  0  0  0  0  0  0
    2.1434   -3.7125    0.0000 N   0  0  0  0  0  0  0  0  0  0  0  0
    2.1434   -2.8875    0.0000 C   0  0  0  0  0  0  0  0  0  0  0  0
    1.4289   -2.4750    0.0000 C   0  0  0  0  0  0  0  0  0  0  0  0
    0.7145   -2.8875    0.0000 C   0  0  0  0  0  0  0  0  0  0  0  0
    0.0000   -2.4750    0.0000 C   0  0  0  0  0  0  0  0  0  0  0  0
    0.0000   -1.6500    0.0000 C   0  0  0  0  0  0  0  0  0  0  0  0
    0.7145   -1.2375    0.0000 C   0  0  0  0  0  0  0  0  0  0  0  0
    1.4289   -1.6500    0.0000 C   0  0  0  0  0  0  0  0  0  0  0  0
    0.7145   -0.4125    0.0000 C   0  0  0  0  0  0  0  0  0  0  0  0
    0.0000    0.0000    0.0000 C   0  0  0  0  0  0  0  0  0  0  0  0
    0.0000    0.8250    0.0000 C   0  0  0  0  0  0  0  0  0  0  0  0
    0.7145    1.2375    0.0000 C   0  0  0  0  0  0  0  0  0  0  0  0
    0.7145    2.0625    0.0000 N   0  0  0  0  0  0  0  0  0  0  0  0
    0.0000    2.4750    0.0000 C   0  0  0  0  0  0  0  0  0  0  0  0
   -0.7145    2.0625    0.0000 C   0  0  0  0  0  0  0  0  0  0  0  0
    0.0000    3.3000    0.0000 O   0  0  0  0  0  0  0  0  0  0  0  0
    1.4289    0.8250    0.0000 C   0  0  0  0  0  0  0  0  0  0  0  0
    1.4289    0.0000    0.0000 C   0  0  0  0  0  0  0  0  0  0  0  0
    2.1434    1.2375    0.0000 C   0  0  0  0  0  0  0  0  0  0  0  0
    2.8579    1.6500    0.0000 F   0  0  0  0  0  0  0  0  0  0  0  0
    2.5559    0.5230    0.0000 F   0  0  0  0  0  0  0  0  0  0  0  0
    1.7309    1.9520    0.0000 F   0  0  0  0  0  0  0  0  0  0  0  0
  1  2  1  0  0  0  0
  2  3  1  0  0  0  0
  3  4  1  0  0  0  0
  4  5  2  0  0  0  0
  4  6  1  0  0  0  0
  6  7  2  0  0  0  0
  7  8  1  0  0  0  0
  7  9  1  0  0  0  0
  9 10  1  0  0  0  0
 10 11  2  0  0  0  0
 10 12  1  0  0  0  0
 12 13  1  0  0  0  0
  6 13  1  0  0  0  0
 13 14  1  0  0  0  0
 14 15  2  0  0  0  0
 15 16  1  0  0  0  0
 16 17  2  0  0  0  0
 17 18  1  0  0  0  0
 18 19  2  0  0  0  0
 14 19  1  0  0  0  0
 18 20  1  0  0  0  0
 20 21  2  0  0  0  0
 21 22  1  0  0  0  0
 22 23  2  0  0  0  0
 23 24  1  0  0  0  0
 24 25  1  0  0  0  0
 25 26  1  0  0  0  0
 25 27  2  0  0  0  0
 23 28  1  0  0  0  0
 28 29  2  0  0  0  0
 20 29  1  0  0  0  0
 28 30  1  0  0  0  0
 30 31  1  0  0  0  0
 30 32  1  0  0  0  0
 30 33  1  0  0  0  0
M  END
> <ID>
CPD_5185

$$$$
CPD_5190
  Mrv1822 09091914012D          

 33 35  0  0  0  0            999 V2000
    0.7145   -2.8875    0.0000 C   0  0  0  0  0  0  0  0  0  0  0  0
    0.7145   -3.7125    0.0000 C   0  0  0  0  0  0  0  0  0  0  0  0
    1.4289   -4.1250    0.0000 O   0  0  0  0  0  0  0  0  0  0  0  0
    1.4289   -4.9500    0.0000 C   0  0  0  0  0  0  0  0  0  0  0  0
    2.1434   -5.3625    0.0000 C   0  0  0  0  0  0  0  0  0  0  0  0
    2.8579   -4.9500    0.0000 N   0  0  0  0  0  0  0  0  0  0  0  0
    2.8579   -4.1250    0.0000 C   0  0  0  0  0  0  0  0  0  0  0  0
    2.1434   -3.7125    0.0000 O   0  0  0  0  0  0  0  0  0  0  0  0
    3.5724   -3.7125    0.0000 C   0  0  0  0  0  0  0  0  0  0  0  0
    4.2868   -4.1250    0.0000 C   0  0  0  0  0  0  0  0  0  0  0  0
    5.0013   -3.7125    0.0000 C   0  0  0  0  0  0  0  0  0  0  0  0
    5.7158   -4.1250    0.0000 N   0  0  0  0  0  0  0  0  0  0  0  0
    5.0013   -2.8875    0.0000 C   0  0  0  0  0  0  0  0  0  0  0  0
    4.2868   -2.4750    0.0000 C   0  0  0  0  0  0  0  0  0  0  0  0
    3.5724   -2.8875    0.0000 C   0  0  0  0  0  0  0  0  0  0  0  0
    5.7158   -2.4750    0.0000 C   0  0  0  0  0  0  0  0  0  0  0  0
    5.7158   -1.6500    0.0000 C   0  0  0  0  0  0  0  0  0  0  0  0
    6.4302   -1.2375    0.0000 C   0  0  0  0  0  0  0  0  0  0  0  0
    7.1447   -1.6500    0.0000 C   0  0  0  0  0  0  0  0  0  0  0  0
    7.8592   -1.2375    0.0000 N   0  0  0  0  0  0  0  0  0  0  0  0
    7.8592   -0.4125    0.0000 C   0  0  0  0  0  0  0  0  0  0  0  0
    7.1447   -0.0000    0.0000 C   0  0  0  0  0  0  0  0  0  0  0  0
    8.5737   -0.0000    0.0000 O   0  0  0  0  0  0  0  0  0  0  0  0
    7.1447   -2.4750    0.0000 C   0  0  0  0  0  0  0  0  0  0  0  0
    6.4302   -2.8875    0.0000 C   0  0  0  0  0  0  0  0  0  0  0  0
    7.8592   -2.8875    0.0000 C   0  0  0  0  0  0  0  0  0  0  0  0
    8.5737   -3.3000    0.0000 F   0  0  0  0  0  0  0  0  0  0  0  0
    7.4467   -3.6020    0.0000 F   0  0  0  0  0  0  0  0  0  0  0  0
    8.2717   -2.1730    0.0000 F   0  0  0  0  0  0  0  0  0  0  0  0
    2.1434   -6.1875    0.0000 C   0  0  0  0  0  0  0  0  0  0  0  0
    1.4289   -6.6000    0.0000 C   0  0  0  0  0  0  0  0  0  0  0  0
    0.7145   -6.1875    0.0000 C   0  0  0  0  0  0  0  0  0  0  0  0
    0.7145   -5.3625    0.0000 C   0  0  0  0  0  0  0  0  0  0  0  0
  1  2  1  0  0  0  0
  2  3  1  0  0  0  0
  3  4  1  0  0  0  0
  4  5  2  0  0  0  0
  5  6  1  0  0  0  0
  6  7  1  0  0  0  0
  7  8  2  0  0  0  0
  7  9  1  0  0  0  0
  9 10  2  0  0  0  0
 10 11  1  0  0  0  0
 11 12  1  0  0  0  0
 11 13  2  0  0  0  0
 13 14  1  0  0  0  0
 14 15  2  0  0  0  0
  9 15  1  0  0  0  0
 13 16  1  0  0  0  0
 16 17  2  0  0  0  0
 17 18  1  0  0  0  0
 18 19  2  0  0  0  0
 19 20  1  0  0  0  0
 20 21  1  0  0  0  0
 21 22  1  0  0  0  0
 21 23  2  0  0  0  0
 19 24  1  0  0  0  0
 24 25  2  0  0  0  0
 16 25  1  0  0  0  0
 24 26  1  0  0  0  0
 26 27  1  0  0  0  0
 26 28  1  0  0  0  0
 26 29  1  0  0  0  0
  5 30  1  0  0  0  0
 30 31  2  0  0  0  0
 31 32  1  0  0  0  0
 32 33  2  0  0  0  0
  4 33  1  0  0  0  0
M  END
> <ID>
CPD_5190

$$$$
CPD_5195
  Mrv1822 09091914012D          

 35 38  0  0  0  0            999 V2000
    0.7145   -6.1875    0.0000 C   0  0  0  0  0  0  0  0  0  0  0  0
    0.7145   -5.3625    0.0000 C   0  0  0  0  0  0  0  0  0  0  0  0
    0.0000   -4.9500    0.0000 O   0  0  0  0  0  0  0  0  0  0  0  0
    1.4289   -4.9500    0.0000 N   0  0  0  0  0  0  0  0  0  0  0  0
    1.4289   -4.1250    0.0000 C   0  0  0  0  0  0  0  0  0  0  0  0
    0.7145   -3.7125    0.0000 C   0  0  0  0  0  0  0  0  0  0  0  0
    0.7145   -2.8875    0.0000 C   0  0  0  0  0  0  0  0  0  0  0  0
    1.4289   -2.4750    0.0000 C   0  0  0  0  0  0  0  0  0  0  0  0
    2.1434   -2.8875    0.0000 C   0  0  0  0  0  0  0  0  0  0  0  0
    2.1434   -3.7125    0.0000 C   0  0  0  0  0  0  0  0  0  0  0  0
    2.8579   -4.1250    0.0000 C   0  0  0  0  0  0  0  0  0  0  0  0
    3.5724   -4.5375    0.0000 F   0  0  0  0  0  0  0  0  0  0  0  0
    2.4454   -4.8395    0.0000 F   0  0  0  0  0  0  0  0  0  0  0  0
    3.2704   -3.4105    0.0000 F   0  0  0  0  0  0  0  0  0  0  0  0
    1.4289   -1.6500    0.0000 C   0  0  0  0  0  0  0  0  0  0  0  0
    0.7145   -1.2375    0.0000 C   0  0  0  0  0  0  0  0  0  0  0  0
    0.7145   -0.4125    0.0000 C   0  0  0  0  0  0  0  0  0  0  0  0
    1.4289    0.0000    0.0000 N   0  0  0  0  0  0  0  0  0  0  0  0
    2.1434   -0.4125    0.0000 C   0  0  0  0  0  0  0  0  0  0  0  0
    2.8579    0.0000    0.0000 C   0  0  0  0  0  0  0  0  0  0  0  0
    3.5724   -0.4125    0.0000 C   0  0  0  0  0  0  0  0  0  0  0  0
    4.2868   -0.0000    0.0000 F   0  0  0  0  0  0  0  0  0  0  0  0
    3.5724   -1.2375    0.0000 C   0  0  0  0  0  0  0  0  0  0  0  0
    2.8579   -1.6500    0.0000 C   0  0  0  0  0  0  0  0  0  0  0  0
    2.1434   -1.2375    0.0000 C   0  0  0  0  0  0  0  0  0  0  0  0
    0.0000   -1.6500    0.0000 S   0  0  0  0  0  0  0  0  0  0  0  0
   -0.4125   -0.9355    0.0000 O   0  0  0  0  0  0  0  0  0  0  0  0
    0.4125   -2.3645    0.0000 O   0  0  0  0  0  0  0  0  0  0  0  0
   -0.7145   -2.0625    0.0000 C   0  0  0  0  0  0  0  0  0  0  0  0
   -0.7145   -2.8875    0.0000 C   0  0  0  0  0  0  0  0  0  0  0  0
   -1.4289   -3.3000    0.0000 C   0  0  0  0  0  0  0  0  0  0  0  0
   -2.1434   -2.8875    0.0000 C   0  0  0  0  0  0  0  0  0  0  0  0
   -2.8579   -3.3000    0.0000 Cl  0  0  0  0  0  0  0  0  0  0  0  0
   -2.1434   -2.0625    0.0000 C   0  0  0  0  0  0  0  0  0  0  0  0
   -1.4289   -1.6500    0.0000 C   0  0  0  0  0  0  0  0  0  0  0  0
  1  2  1  0  0  0  0
  2  3  2  0  0  0  0
  2  4  1  0  0  0  0
  4  5  1  0  0  0  0
  5  6  2  0  0  0  0
  6  7  1  0  0  0  0
  7  8  2  0  0  0  0
  8  9  1  0  0  0  0
  9 10  2  0  0  0  0
  5 10  1  0  0  0  0
 10 11  1  0  0  0  0
 11 12  1  0  0  0  0
 11 13  1  0  0  0  0
 11 14  1  0  0  0  0
  8 15  1  0  0  0  0
 15 16  2  0  0  0  0
 16 17  1  0  0  0  0
 17 18  2  0  0  0  0
 18 19  1  0  0  0  0
 19 20  2  0  0  0  0
 20 21  1  0  0  0  0
 21 22  1  0  0  0  0
 21 23  2  0  0  0  0
 23 24  1  0  0  0  0
 24 25  2  0  0  0  0
 15 25  1  0  0  0  0
 19 25  1  0  0  0  0
 16 26  1  0  0  0  0
 26 27  2  0  0  0  0
 26 28  2  0  0  0  0
 26 29  1  0  0  0  0
 29 30  2  0  0  0  0
 30 31  1  0  0  0  0
 31 32  2  0  0  0  0
 32 33  1  0  0  0  0
 32 34  1  0  0  0  0
 34 35  2  0  0  0  0
 29 35  1  0  0  0  0
M  END
> <ID>
CPD_5195

$$$$
CPD_5200
  Mrv1822 09091914012D          

 25 27  0  0  0  0            999 V2000
   -3.5724   -2.8875    0.0000 C   0  0  0  0  0  0  0  0  0  0  0  0
   -2.8579   -2.4750    0.0000 C   0  0  0  0  0  0  0  0  0  0  0  0
   -2.8579   -1.6500    0.0000 O   0  0  0  0  0  0  0  0  0  0  0  0
   -2.1434   -2.8875    0.0000 N   0  0  0  0  0  0  0  0  0  0  0  0
   -1.4289   -2.4750    0.0000 C   0  0  0  0  0  0  0  0  0  0  0  0
   -1.4289   -1.6500    0.0000 C   0  0  0  0  0  0  0  0  0  0  0  0
   -0.7145   -1.2375    0.0000 C   0  0  0  0  0  0  0  0  0  0  0  0
    0.0000   -1.6500    0.0000 C   0  0  0  0  0  0  0  0  0  0  0  0
    0.0000   -2.4750    0.0000 C   0  0  0  0  0  0  0  0  0  0  0  0
   -0.7145   -2.8875    0.0000 C   0  0  0  0  0  0  0  0  0  0  0  0
   -0.7145   -3.7125    0.0000 C   0  0  0  0  0  0  0  0  0  0  0  0
   -0.7145   -4.5375    0.0000 F   0  0  0  0  0  0  0  0  0  0  0  0
   -1.5395   -3.7125    0.0000 F   0  0  0  0  0  0  0  0  0  0  0  0
    0.1105   -3.7125    0.0000 F   0  0  0  0  0  0  0  0  0  0  0  0
    0.7145   -1.2375    0.0000 C   0  0  0  0  0  0  0  0  0  0  0  0
    0.7145   -0.4125    0.0000 C   0  0  0  0  0  0  0  0  0  0  0  0
    1.4289    0.0000    0.0000 C   0  0  0  0  0  0  0  0  0  0  0  0
    2.1434   -0.4125    0.0000 C   0  0  0  0  0  0  0  0  0  0  0  0
    2.8579    0.0000    0.0000 C   0  0  0  0  0  0  0  0  0  0  0  0
    3.5724   -0.4125    0.0000 C   0  0  0  0  0  0  0  0  0  0  0  0
    3.5724   -1.2375    0.0000 N   0  0  0  0  0  0  0  0  0  0  0  0
    2.8579   -1.6500    0.0000 C   0  0  0  0  0  0  0  0  0  0  0  0
    2.8579   -2.4750    0.0000 O   0  0  0  0  0  0  0  0  0  0  0  0
    2.1434   -1.2375    0.0000 C   0  0  0  0  0  0  0  0  0  0  0  0
    1.4289   -1.6500    0.0000 C   0  0  0  0  0  0  0  0  0  0  0  0
  1  2  1  0  0  0  0
  2  3  2  0  0  0  0
  2  4  1  0  0  0  0
  4  5  1  0  0  0  0
  5  6  2  0  0  0  0
  6  7  1  0  0  0  0
  7  8  2  0  0  0  0
  8  9  1  0  0  0  0
  9 10  2  0  0  0  0
  5 10  1  0  0  0  0
 10 11  1  0  0  0  0
 11 12  1  0  0  0  0
 11 13  1  0  0  0  0
 11 14  1  0  0  0  0
  8 15  1  0  0  0  0
 15 16  2  0  0  0  0
 16 17  1  0  0  0  0
 17 18  2  0  0  0  0
 18 19  1  0  0  0  0
 19 20  1  0  0  0  0
 20 21  1  0  0  0  0
 21 22  1  0  0  0  0
 22 23  2  0  0  0  0
 22 24  1  0  0  0  0
 18 24  1  0  0  0  0
 24 25  2  0  0  0  0
 15 25  1  0  0  0  0
M  END
> <ID>
CPD_5200

$$$$
CPD_5205
  Mrv1822 09091914012D          

 28 30  0  0  0  0            999 V2000
    2.8579    0.8250    0.0000 C   0  0  0  0  0  0  0  0  0  0  0  0
    2.8579   -0.0000    0.0000 N   0  0  0  0  0  0  0  0  0  0  0  0
    2.1434   -0.4125    0.0000 C   0  0  0  0  0  0  0  0  0  0  0  0
    3.5724   -0.4125    0.0000 C   0  0  0  0  0  0  0  0  0  0  0  0
    4.2868   -0.0000    0.0000 O   0  0  0  0  0  0  0  0  0  0  0  0
    3.5724   -1.2375    0.0000 C   0  0  0  0  0  0  0  0  0  0  0  0
    2.8579   -1.6500    0.0000 C   0  0  0  0  0  0  0  0  0  0  0  0
    2.8579   -2.4750    0.0000 C   0  0  0  0  0  0  0  0  0  0  0  0
    3.5724   -2.8875    0.0000 C   0  0  0  0  0  0  0  0  0  0  0  0
    4.2868   -2.4750    0.0000 C   0  0  0  0  0  0  0  0  0  0  0  0
    4.2868   -1.6500    0.0000 C   0  0  0  0  0  0  0  0  0  0  0  0
    2.1434   -2.8875    0.0000 C   0  0  0  0  0  0  0  0  0  0  0  0
    1.4289   -2.4750    0.0000 C   0  0  0  0  0  0  0  0  0  0  0  0
    1.4289   -1.6500    0.0000 N   0  0  0  0  0  0  0  0  0  0  0  0
    0.7145   -1.2375    0.0000 C   0  0  0  0  0  0  0  0  0  0  0  0
    0.0000   -1.6500    0.0000 O   0  0  0  0  0  0  0  0  0  0  0  0
    0.7145   -0.4125    0.0000 C   0  0  0  0  0  0  0  0  0  0  0  0
   -0.0000   -0.0000    0.0000 C   0  0  0  0  0  0  0  0  0  0  0  0
   -0.0000    0.8250    0.0000 C   0  0  0  0  0  0  0  0  0  0  0  0
    0.7145    1.2375    0.0000 C   0  0  0  0  0  0  0  0  0  0  0  0
    0.7145    2.0625    0.0000 C   0  0  0  0  0  0  0  0  0  0  0  0
    1.4289    0.8250    0.0000 C   0  0  0  0  0  0  0  0  0  0  0  0
    1.4289   -0.0000    0.0000 C   0  0  0  0  0  0  0  0  0  0  0  0
    0.7145   -2.8875    0.0000 C   0  0  0  0  0  0  0  0  0  0  0  0
    0.7145   -3.7125    0.0000 C   0  0  0  0  0  0  0  0  0  0  0  0
    1.4289   -4.1250    0.0000 C   0  0  0  0  0  0  0  0  0  0  0  0
    1.4289   -4.9500    0.0000 C   0  0  0  0  0  0  0  0  0  0  0  0
    2.1434   -3.7125    0.0000 C   0  0  0  0  0  0  0  0  0  0  0  0
  1  2  1  0  0  0  0
  2  3  1  0  0  0  0
  2  4  1  0  0  0  0
  4  5  2  0  0  0  0
  4  6  1  0  0  0  0
  6  7  2  0  0  0  0
  7  8  1  0  0  0  0
  8  9  2  0  0  0  0
  9 10  1  0  0  0  0
 10 11  2  0  0  0  0
  6 11  1  0  0  0  0
  8 12  1  0  0  0  0
 12 13  2  0  0  0  0
 13 14  1  0  0  0  0
 14 15  1  0  0  0  0
 15 16  2  0  0  0  0
 15 17  1  0  0  0  0
 17 18  2  0  0  0  0
 18 19  1  0  0  0  0
 19 20  2  0  0  0  0
 20 21  1  0  0  0  0
 20 22  1  0  0  0  0
 22 23  2  0  0  0  0
 17 23  1  0  0  0  0
 13 24  1  0  0  0  0
 24 25  2  0  0  0  0
 25 26  1  0  0  0  0
 26 27  1  0  0  0  0
 26 28  2  0  0  0  0
 12 28  1  0  0  0  0
M  END
> <ID>
CPD_5205

$$$$
CPD_5210
  Mrv1822 09091914012D          

 27 29  0  0  0  0            999 V2000
    5.1080   11.7777    0.0000 C   0  0  0  0  0  0  0  0  0  0  0  0
    5.1080   10.9527    0.0000 S   0  0  0  0  0  0  0  0  0  0  0  0
    5.8225   10.5402    0.0000 O   0  0  0  0  0  0  0  0  0  0  0  0
    4.3935   10.5402    0.0000 C   0  0  0  0  0  0  0  0  0  0  0  0
    4.3935    9.7152    0.0000 C   0  0  0  0  0  0  0  0  0  0  0  0
    3.6791    9.3027    0.0000 C   0  0  0  0  0  0  0  0  0  0  0  0
    2.9646    9.7152    0.0000 C   0  0  0  0  0  0  0  0  0  0  0  0
    2.9646   10.5402    0.0000 C   0  0  0  0  0  0  0  0  0  0  0  0
    3.6791   10.9527    0.0000 C   0  0  0  0  0  0  0  0  0  0  0  0
    2.2501    9.3027    0.0000 C   0  0  0  0  0  0  0  0  0  0  0  0
    2.2501    8.4777    0.0000 C   0  0  0  0  0  0  0  0  0  0  0  0
    1.5356    8.0652    0.0000 C   0  0  0  0  0  0  0  0  0  0  0  0
    0.8212    8.4777    0.0000 C   0  0  0  0  0  0  0  0  0  0  0  0
    0.8212    9.3027    0.0000 C   0  0  0  0  0  0  0  0  0  0  0  0
    1.5356    9.7152    0.0000 C   0  0  0  0  0  0  0  0  0  0  0  0
    0.1067    8.0652    0.0000 S   0  0  0  0  0  0  0  0  0  0  0  0
   -0.3058    8.7797    0.0000 O   0  0  0  0  0  0  0  0  0  0  0  0
    0.5192    7.3507    0.0000 O   0  0  0  0  0  0  0  0  0  0  0  0
   -0.6078    7.6527    0.0000 N   0  0  0  0  0  0  0  0  0  0  0  0
   -0.6078    6.8277    0.0000 C   0  0  0  0  0  0  0  0  0  0  0  0
   -1.3222    6.4152    0.0000 C   0  0  0  0  0  0  0  0  0  0  0  0
   -1.3222    5.5902    0.0000 C   0  0  0  0  0  0  0  0  0  0  0  0
   -0.6548    5.1053    0.0000 N   0  0  0  0  0  0  0  0  0  0  0  0
   -0.9097    4.3206    0.0000 N   0  0  0  0  0  0  0  0  0  0  0  0
   -1.7347    4.3206    0.0000 C   0  0  0  0  0  0  0  0  0  0  0  0
   -2.2197    3.6532    0.0000 N   0  0  0  0  0  0  0  0  0  0  0  0
   -1.9897    5.1053    0.0000 S   0  0  0  0  0  0  0  0  0  0  0  0
  1  2  1  0  0  0  0
  2  3  2  0  0  0  0
  2  4  1  0  0  0  0
  4  5  2  0  0  0  0
  5  6  1  0  0  0  0
  6  7  2  0  0  0  0
  7  8  1  0  0  0  0
  8  9  2  0  0  0  0
  4  9  1  0  0  0  0
  7 10  1  0  0  0  0
 10 11  2  0  0  0  0
 11 12  1  0  0  0  0
 12 13  2  0  0  0  0
 13 14  1  0  0  0  0
 14 15  2  0  0  0  0
 10 15  1  0  0  0  0
 13 16  1  0  0  0  0
 16 17  2  0  0  0  0
 16 18  2  0  0  0  0
 16 19  1  0  0  0  0
 19 20  1  0  0  0  0
 20 21  1  0  0  0  0
 21 22  1  0  0  0  0
 22 23  2  0  0  0  0
 23 24  1  0  0  0  0
 24 25  2  0  0  0  0
 25 26  1  0  0  0  0
 25 27  1  0  0  0  0
 22 27  1  0  0  0  0
M  END
> <ID>
CPD_5210

$$$$
CPD_5215
  Mrv1822 09091914012D          

 27 29  0  0  0  0            999 V2000
    5.1080    9.3027    0.0000 C   0  0  0  0  0  0  0  0  0  0  0  0
    4.3935    9.7152    0.0000 C   0  0  0  0  0  0  0  0  0  0  0  0
    3.6791    9.3027    0.0000 C   0  0  0  0  0  0  0  0  0  0  0  0
    2.9646    9.7152    0.0000 C   0  0  0  0  0  0  0  0  0  0  0  0
    2.9646   10.5402    0.0000 C   0  0  0  0  0  0  0  0  0  0  0  0
    2.2501   10.9527    0.0000 O   0  0  0  0  0  0  0  0  0  0  0  0
    3.6791   10.9527    0.0000 C   0  0  0  0  0  0  0  0  0  0  0  0
    3.6791   11.7777    0.0000 Br  0  0  0  0  0  0  0  0  0  0  0  0
    4.3935   10.5402    0.0000 C   0  0  0  0  0  0  0  0  0  0  0  0
    2.2501    9.3027    0.0000 C   0  0  0  0  0  0  0  0  0  0  0  0
    2.2501    8.4777    0.0000 C   0  0  0  0  0  0  0  0  0  0  0  0
    1.5356    8.0652    0.0000 C   0  0  0  0  0  0  0  0  0  0  0  0
    0.8212    8.4777    0.0000 C   0  0  0  0  0  0  0  0  0  0  0  0
    0.8212    9.3027    0.0000 C   0  0  0  0  0  0  0  0  0  0  0  0
    1.5356    9.7152    0.0000 C   0  0  0  0  0  0  0  0  0  0  0  0
    0.1067    8.0652    0.0000 S   0  0  0  0  0  0  0  0  0  0  0  0
   -0.3058    8.7797    0.0000 O   0  0  0  0  0  0  0  0  0  0  0  0
    0.5192    7.3507    0.0000 O   0  0  0  0  0  0  0  0  0  0  0  0
   -0.6078    7.6527    0.0000 N   0  0  0  0  0  0  0  0  0  0  0  0
   -0.6078    6.8277    0.0000 C   0  0  0  0  0  0  0  0  0  0  0  0
   -1.3222    6.4152    0.0000 C   0  0  0  0  0  0  0  0  0  0  0  0
   -1.3222    5.5902    0.0000 C   0  0  0  0  0  0  0  0  0  0  0  0
   -0.6548    5.1053    0.0000 N   0  0  0  0  0  0  0  0  0  0  0  0
   -0.9097    4.3206    0.0000 N   0  0  0  0  0  0  0  0  0  0  0  0
   -1.7347    4.3206    0.0000 C   0  0  0  0  0  0  0  0  0  0  0  0
   -2.2197    3.6532    0.0000 N   0  0  0  0  0  0  0  0  0  0  0  0
   -1.9897    5.1053    0.0000 S   0  0  0  0  0  0  0  0  0  0  0  0
  1  2  1  0  0  0  0
  2  3  2  0  0  0  0
  3  4  1  0  0  0  0
  4  5  2  0  0  0  0
  5  6  1  0  0  0  0
  5  7  1  0  0  0  0
  7  8  1  0  0  0  0
  7  9  2  0  0  0  0
  2  9  1  0  0  0  0
  4 10  1  0  0  0  0
 10 11  2  0  0  0  0
 11 12  1  0  0  0  0
 12 13  2  0  0  0  0
 13 14  1  0  0  0  0
 14 15  2  0  0  0  0
 10 15  1  0  0  0  0
 13 16  1  0  0  0  0
 16 17  2  0  0  0  0
 16 18  2  0  0  0  0
 16 19  1  0  0  0  0
 19 20  1  0  0  0  0
 20 21  1  0  0  0  0
 21 22  1  0  0  0  0
 22 23  2  0  0  0  0
 23 24  1  0  0  0  0
 24 25  2  0  0  0  0
 25 26  1  0  0  0  0
 25 27  1  0  0  0  0
 22 27  1  0  0  0  0
M  END
> <ID>
CPD_5215

$$$$
CPD_5220
  Mrv1822 09091914012D          

 29 32  0  0  0  0            999 V2000
   -0.1712   -0.6979    0.0000 N   0  0  0  0  0  0  0  0  0  0  0  0
    0.6538   -0.6979    0.0000 C   0  0  0  0  0  0  0  0  0  0  0  0
    1.1387   -0.0305    0.0000 N   0  0  0  0  0  0  0  0  0  0  0  0
    1.9233   -0.2854    0.0000 C   0  0  0  0  0  0  0  0  0  0  0  0
    2.6378    0.1271    0.0000 C   0  0  0  0  0  0  0  0  0  0  0  0
    3.3523   -0.2854    0.0000 C   0  0  0  0  0  0  0  0  0  0  0  0
    3.3523   -1.1104    0.0000 C   0  0  0  0  0  0  0  0  0  0  0  0
    4.0668   -1.5229    0.0000 Cl  0  0  0  0  0  0  0  0  0  0  0  0
    2.6378   -1.5229    0.0000 C   0  0  0  0  0  0  0  0  0  0  0  0
    1.9233   -1.1104    0.0000 C   0  0  0  0  0  0  0  0  0  0  0  0
    1.1387   -1.3654    0.0000 N   0  0  0  0  0  0  0  0  0  0  0  0
    4.0668    0.1271    0.0000 C   0  0  0  0  0  0  0  0  0  0  0  0
    4.0668    0.9521    0.0000 C   0  0  0  0  0  0  0  0  0  0  0  0
    4.7812    1.3646    0.0000 C   0  0  0  0  0  0  0  0  0  0  0  0
    5.4957    0.9521    0.0000 C   0  0  0  0  0  0  0  0  0  0  0  0
    5.4957    0.1271    0.0000 C   0  0  0  0  0  0  0  0  0  0  0  0
    4.7812   -0.2854    0.0000 C   0  0  0  0  0  0  0  0  0  0  0  0
    6.2102    1.3646    0.0000 S   0  0  0  0  0  0  0  0  0  0  0  0
    6.6227    0.6501    0.0000 O   0  0  0  0  0  0  0  0  0  0  0  0
    5.7977    2.0790    0.0000 O   0  0  0  0  0  0  0  0  0  0  0  0
    6.9246    1.7771    0.0000 N   0  0  0  0  0  0  0  0  0  0  0  0
    6.9246    2.6021    0.0000 C   0  0  0  0  0  0  0  0  0  0  0  0
    7.6391    3.0146    0.0000 C   0  0  0  0  0  0  0  0  0  0  0  0
    7.6391    3.8396    0.0000 C   0  0  0  0  0  0  0  0  0  0  0  0
    6.9717    4.3245    0.0000 N   0  0  0  0  0  0  0  0  0  0  0  0
    7.2266    5.1091    0.0000 N   0  0  0  0  0  0  0  0  0  0  0  0
    8.0516    5.1091    0.0000 C   0  0  0  0  0  0  0  0  0  0  0  0
    8.5365    5.7765    0.0000 N   0  0  0  0  0  0  0  0  0  0  0  0
    8.3065    4.3245    0.0000 S   0  0  0  0  0  0  0  0  0  0  0  0
  1  2  1  0  0  0  0
  2  3  2  0  0  0  0
  3  4  1  0  0  0  0
  4  5  2  0  0  0  0
  5  6  1  0  0  0  0
  6  7  2  0  0  0  0
  7  8  1  0  0  0  0
  7  9  1  0  0  0  0
  9 10  2  0  0  0  0
  4 10  1  0  0  0  0
 10 11  1  0  0  0  0
  2 11  1  0  0  0  0
  6 12  1  0  0  0  0
 12 13  2  0  0  0  0
 13 14  1  0  0  0  0
 14 15  2  0  0  0  0
 15 16  1  0  0  0  0
 16 17  2  0  0  0  0
 12 17  1  0  0  0  0
 15 18  1  0  0  0  0
 18 19  2  0  0  0  0
 18 20  2  0  0  0  0
 18 21  1  0  0  0  0
 21 22  1  0  0  0  0
 22 23  1  0  0  0  0
 23 24  1  0  0  0  0
 24 25  2  0  0  0  0
 25 26  1  0  0  0  0
 26 27  2  0  0  0  0
 27 28  1  0  0  0  0
 27 29  1  0  0  0  0
 24 29  1  0  0  0  0
M  END
> <ID>
CPD_5220

$$$$
CPD_5225
  Mrv1822 09091914012D          

 29 32  0  0  0  0            999 V2000
    2.5645    2.4750    0.0000 C   0  0  0  0  0  0  0  0  0  0  0  0
    3.2789    2.0625    0.0000 N   0  0  0  0  0  0  0  0  0  0  0  0
    3.2789    1.2375    0.0000 C   0  0  0  0  0  0  0  0  0  0  0  0
    3.9934    0.8250    0.0000 N   0  0  0  0  0  0  0  0  0  0  0  0
    3.9934    0.0000    0.0000 C   0  0  0  0  0  0  0  0  0  0  0  0
    3.2789   -0.4125    0.0000 N   0  0  0  0  0  0  0  0  0  0  0  0
    2.5645    0.0000    0.0000 C   0  0  0  0  0  0  0  0  0  0  0  0
    2.5645    0.8250    0.0000 C   0  0  0  0  0  0  0  0  0  0  0  0
    1.7798    1.0799    0.0000 N   0  0  0  0  0  0  0  0  0  0  0  0
    1.2949    0.4125    0.0000 C   0  0  0  0  0  0  0  0  0  0  0  0
    1.7798   -0.2549    0.0000 N   0  0  0  0  0  0  0  0  0  0  0  0
    4.7079   -0.4125    0.0000 C   0  0  0  0  0  0  0  0  0  0  0  0
    5.4223   -0.0000    0.0000 C   0  0  0  0  0  0  0  0  0  0  0  0
    6.1368   -0.4125    0.0000 C   0  0  0  0  0  0  0  0  0  0  0  0
    6.1368   -1.2375    0.0000 C   0  0  0  0  0  0  0  0  0  0  0  0
    5.4223   -1.6500    0.0000 C   0  0  0  0  0  0  0  0  0  0  0  0
    4.7079   -1.2375    0.0000 C   0  0  0  0  0  0  0  0  0  0  0  0
    6.8513   -1.6500    0.0000 S   0  0  0  0  0  0  0  0  0  0  0  0
    6.4388   -2.3645    0.0000 O   0  0  0  0  0  0  0  0  0  0  0  0
    7.2638   -0.9355    0.0000 O   0  0  0  0  0  0  0  0  0  0  0  0
    7.5658   -2.0625    0.0000 N   0  0  0  0  0  0  0  0  0  0  0  0
    8.2802   -1.6500    0.0000 C   0  0  0  0  0  0  0  0  0  0  0  0
    8.9947   -2.0625    0.0000 C   0  0  0  0  0  0  0  0  0  0  0  0
    9.7092   -1.6500    0.0000 C   0  0  0  0  0  0  0  0  0  0  0  0
    9.7954   -0.8295    0.0000 N   0  0  0  0  0  0  0  0  0  0  0  0
   10.6024   -0.6580    0.0000 N   0  0  0  0  0  0  0  0  0  0  0  0
   11.0149   -1.3725    0.0000 C   0  0  0  0  0  0  0  0  0  0  0  0
   11.8354   -1.4587    0.0000 N   0  0  0  0  0  0  0  0  0  0  0  0
   10.4628   -1.9856    0.0000 S   0  0  0  0  0  0  0  0  0  0  0  0
  1  2  1  0  0  0  0
  2  3  1  0  0  0  0
  3  4  2  0  0  0  0
  4  5  1  0  0  0  0
  5  6  2  0  0  0  0
  6  7  1  0  0  0  0
  7  8  2  0  0  0  0
  3  8  1  0  0  0  0
  8  9  1  0  0  0  0
  9 10  1  0  0  0  0
 10 11  2  0  0  0  0
  7 11  1  0  0  0  0
  5 12  1  0  0  0  0
 12 13  2  0  0  0  0
 13 14  1  0  0  0  0
 14 15  2  0  0  0  0
 15 16  1  0  0  0  0
 16 17  2  0  0  0  0
 12 17  1  0  0  0  0
 15 18  1  0  0  0  0
 18 19  2  0  0  0  0
 18 20  2  0  0  0  0
 18 21  1  0  0  0  0
 21 22  1  0  0  0  0
 22 23  1  0  0  0  0
 23 24  1  0  0  0  0
 24 25  2  0  0  0  0
 25 26  1  0  0  0  0
 26 27  2  0  0  0  0
 27 28  1  0  0  0  0
 27 29  1  0  0  0  0
 24 29  1  0  0  0  0
M  END
> <ID>
CPD_5225

$$$$
CPD_5230
  Mrv1822 09091914012D          

 23 25  0  0  0  0            999 V2000
    1.5356    2.4134    0.0000 C   0  0  0  0  0  0  0  0  0  0  0  0
    0.8212    2.0009    0.0000 C   0  0  0  0  0  0  0  0  0  0  0  0
    0.8212    1.1759    0.0000 C   0  0  0  0  0  0  0  0  0  0  0  0
    1.5356    0.7634    0.0000 O   0  0  0  0  0  0  0  0  0  0  0  0
    0.1067    0.7634    0.0000 C   0  0  0  0  0  0  0  0  0  0  0  0
   -0.6078    1.1759    0.0000 C   0  0  0  0  0  0  0  0  0  0  0  0
   -0.6078    2.0009    0.0000 C   0  0  0  0  0  0  0  0  0  0  0  0
    0.1067    2.4134    0.0000 C   0  0  0  0  0  0  0  0  0  0  0  0
   -1.3222    2.4134    0.0000 C   0  0  0  0  0  0  0  0  0  0  0  0
   -2.0367    2.0009    0.0000 C   0  0  0  0  0  0  0  0  0  0  0  0
   -2.0367    1.1759    0.0000 C   0  0  0  0  0  0  0  0  0  0  0  0
   -2.7512    0.7634    0.0000 S   0  0  0  0  0  0  0  0  0  0  0  0
   -2.7512   -0.0616    0.0000 C   0  0  0  0  0  0  0  0  0  0  0  0
   -2.0837   -0.5465    0.0000 N   0  0  0  0  0  0  0  0  0  0  0  0
   -2.3387   -1.3312    0.0000 N   0  0  0  0  0  0  0  0  0  0  0  0
   -3.1637   -1.3312    0.0000 C   0  0  0  0  0  0  0  0  0  0  0  0
   -3.6486   -1.9986    0.0000 N   0  0  0  0  0  0  0  0  0  0  0  0
   -3.4186   -0.5465    0.0000 S   0  0  0  0  0  0  0  0  0  0  0  0
   -2.7512    2.4134    0.0000 C   0  0  0  0  0  0  0  0  0  0  0  0
   -2.7512    3.2384    0.0000 C   0  0  0  0  0  0  0  0  0  0  0  0
   -3.4656    3.6509    0.0000 Cl  0  0  0  0  0  0  0  0  0  0  0  0
   -2.0367    3.6509    0.0000 C   0  0  0  0  0  0  0  0  0  0  0  0
   -1.3222    3.2384    0.0000 C   0  0  0  0  0  0  0  0  0  0  0  0
  1  2  1  0  0  0  0
  2  3  2  0  0  0  0
  3  4  1  0  0  0  0
  3  5  1  0  0  0  0
  5  6  2  0  0  0  0
  6  7  1  0  0  0  0
  7  8  2  0  0  0  0
  2  8  1  0  0  0  0
  7  9  1  0  0  0  0
  9 10  2  0  0  0  0
 10 11  1  0  0  0  0
 11 12  1  0  0  0  0
 12 13  1  0  0  0  0
 13 14  2  0  0  0  0
 14 15  1  0  0  0  0
 15 16  2  0  0  0  0
 16 17  1  0  0  0  0
 16 18  1  0  0  0  0
 13 18  1  0  0  0  0
 10 19  1  0  0  0  0
 19 20  2  0  0  0  0
 20 21  1  0  0  0  0
 20 22  1  0  0  0  0
 22 23  2  0  0  0  0
  9 23  1  0  0  0  0
M  END
> <ID>
CPD_5230

$$$$
CPD_5235
  Mrv1822 09091914012D          

 23 25  0  0  0  0            999 V2000
    0.8212   -0.4741    0.0000 C   0  0  0  0  0  0  0  0  0  0  0  0
    0.1067   -0.0616    0.0000 O   0  0  0  0  0  0  0  0  0  0  0  0
    0.1067    0.7634    0.0000 C   0  0  0  0  0  0  0  0  0  0  0  0
   -0.6078    1.1759    0.0000 N   0  0  0  0  0  0  0  0  0  0  0  0
   -0.6078    2.0009    0.0000 C   0  0  0  0  0  0  0  0  0  0  0  0
    0.1067    2.4134    0.0000 C   0  0  0  0  0  0  0  0  0  0  0  0
    0.8212    2.0009    0.0000 C   0  0  0  0  0  0  0  0  0  0  0  0
    0.8212    1.1759    0.0000 C   0  0  0  0  0  0  0  0  0  0  0  0
   -1.3222    2.4134    0.0000 C   0  0  0  0  0  0  0  0  0  0  0  0
   -2.0367    2.0009    0.0000 C   0  0  0  0  0  0  0  0  0  0  0  0
   -2.0367    1.1759    0.0000 C   0  0  0  0  0  0  0  0  0  0  0  0
   -2.7512    0.7634    0.0000 S   0  0  0  0  0  0  0  0  0  0  0  0
   -2.7512   -0.0616    0.0000 C   0  0  0  0  0  0  0  0  0  0  0  0
   -2.0837   -0.5465    0.0000 N   0  0  0  0  0  0  0  0  0  0  0  0
   -2.3387   -1.3312    0.0000 N   0  0  0  0  0  0  0  0  0  0  0  0
   -3.1637   -1.3312    0.0000 C   0  0  0  0  0  0  0  0  0  0  0  0
   -3.6486   -1.9986    0.0000 N   0  0  0  0  0  0  0  0  0  0  0  0
   -3.4186   -0.5465    0.0000 S   0  0  0  0  0  0  0  0  0  0  0  0
   -2.7512    2.4134    0.0000 C   0  0  0  0  0  0  0  0  0  0  0  0
   -2.7512    3.2384    0.0000 C   0  0  0  0  0  0  0  0  0  0  0  0
   -3.4656    3.6509    0.0000 Cl  0  0  0  0  0  0  0  0  0  0  0  0
   -2.0367    3.6509    0.0000 C   0  0  0  0  0  0  0  0  0  0  0  0
   -1.3222    3.2384    0.0000 C   0  0  0  0  0  0  0  0  0  0  0  0
  1  2  1  0  0  0  0
  2  3  1  0  0  0  0
  3  4  2  0  0  0  0
  4  5  1  0  0  0  0
  5  6  2  0  0  0  0
  6  7  1  0  0  0  0
  7  8  2  0  0  0  0
  3  8  1  0  0  0  0
  5  9  1  0  0  0  0
  9 10  2  0  0  0  0
 10 11  1  0  0  0  0
 11 12  1  0  0  0  0
 12 13  1  0  0  0  0
 13 14  2  0  0  0  0
 14 15  1  0  0  0  0
 15 16  2  0  0  0  0
 16 17  1  0  0  0  0
 16 18  1  0  0  0  0
 13 18  1  0  0  0  0
 10 19  1  0  0  0  0
 19 20  2  0  0  0  0
 20 21  1  0  0  0  0
 20 22  1  0  0  0  0
 22 23  2  0  0  0  0
  9 23  1  0  0  0  0
M  END
> <ID>
CPD_5235

$$$$
CPD_5240
  Mrv1822 09091914012D          

 21 23  0  0  0  0            999 V2000
   -2.7512    0.6402    0.0000 N   0  0  0  0  0  0  0  0  0  0  0  0
   -2.7512   -0.1848    0.0000 C   0  0  0  0  0  0  0  0  0  0  0  0
   -2.0837   -0.6697    0.0000 N   0  0  0  0  0  0  0  0  0  0  0  0
   -2.3387   -1.4544    0.0000 N   0  0  0  0  0  0  0  0  0  0  0  0
   -3.1637   -1.4544    0.0000 C   0  0  0  0  0  0  0  0  0  0  0  0
   -3.6486   -2.1218    0.0000 S   0  0  0  0  0  0  0  0  0  0  0  0
   -3.3130   -2.8755    0.0000 C   0  0  0  0  0  0  0  0  0  0  0  0
   -3.7980   -3.5429    0.0000 C   0  0  0  0  0  0  0  0  0  0  0  0
   -3.4624   -4.2966    0.0000 C   0  0  0  0  0  0  0  0  0  0  0  0
   -3.9473   -4.9640    0.0000 C   0  0  0  0  0  0  0  0  0  0  0  0
   -4.7678   -4.8778    0.0000 C   0  0  0  0  0  0  0  0  0  0  0  0
   -5.1034   -4.1241    0.0000 C   0  0  0  0  0  0  0  0  0  0  0  0
   -5.9239   -4.0379    0.0000 Cl  0  0  0  0  0  0  0  0  0  0  0  0
   -4.6184   -3.4567    0.0000 C   0  0  0  0  0  0  0  0  0  0  0  0
   -2.6419   -4.3828    0.0000 C   0  0  0  0  0  0  0  0  0  0  0  0
   -2.1570   -3.7154    0.0000 C   0  0  0  0  0  0  0  0  0  0  0  0
   -1.3365   -3.8016    0.0000 C   0  0  0  0  0  0  0  0  0  0  0  0
   -1.0010   -4.5553    0.0000 N   0  0  0  0  0  0  0  0  0  0  0  0
   -1.4859   -5.2227    0.0000 C   0  0  0  0  0  0  0  0  0  0  0  0
   -2.3064   -5.1365    0.0000 C   0  0  0  0  0  0  0  0  0  0  0  0
   -3.4186   -0.6697    0.0000 S   0  0  0  0  0  0  0  0  0  0  0  0
  1  2  1  0  0  0  0
  2  3  2  0  0  0  0
  3  4  1  0  0  0  0
  4  5  2  0  0  0  0
  5  6  1  0  0  0  0
  6  7  1  0  0  0  0
  7  8  1  0  0  0  0
  8  9  2  0  0  0  0
  9 10  1  0  0  0  0
 10 11  2  0  0  0  0
 11 12  1  0  0  0  0
 12 13  1  0  0  0  0
 12 14  2  0  0  0  0
  8 14  1  0  0  0  0
  9 15  1  0  0  0  0
 15 16  2  0  0  0  0
 16 17  1  0  0  0  0
 17 18  2  0  0  0  0
 18 19  1  0  0  0  0
 19 20  2  0  0  0  0
 15 20  1  0  0  0  0
  5 21  1  0  0  0  0
  2 21  1  0  0  0  0
M  END
> <ID>
CPD_5240

$$$$
CPD_5245
  Mrv1822 09091914012D          

 31 33  0  0  0  0            999 V2000
   -0.0000    8.2500    0.0000 C   0  0  0  0  0  0  0  0  0  0  0  0
   -0.0000    7.4250    0.0000 C   0  0  0  0  0  0  0  0  0  0  0  0
    0.7145    7.0125    0.0000 C   0  0  0  0  0  0  0  0  0  0  0  0
    0.7145    6.1875    0.0000 C   0  0  0  0  0  0  0  0  0  0  0  0
   -0.0000    5.7750    0.0000 C   0  0  0  0  0  0  0  0  0  0  0  0
   -0.7145    6.1875    0.0000 C   0  0  0  0  0  0  0  0  0  0  0  0
   -1.4289    5.7750    0.0000 N   0  0  0  0  0  0  0  0  0  0  0  0
   -1.4289    4.9500    0.0000 C   0  0  0  0  0  0  0  0  0  0  0  0
   -0.7145    4.5375    0.0000 O   0  0  0  0  0  0  0  0  0  0  0  0
   -2.1434    4.5375    0.0000 C   0  0  0  0  0  0  0  0  0  0  0  0
   -2.1434    3.7125    0.0000 C   0  0  0  0  0  0  0  0  0  0  0  0
   -2.8579    3.3000    0.0000 C   0  0  0  0  0  0  0  0  0  0  0  0
   -3.5724    3.7125    0.0000 C   0  0  0  0  0  0  0  0  0  0  0  0
   -3.5724    4.5375    0.0000 C   0  0  0  0  0  0  0  0  0  0  0  0
   -2.8579    4.9500    0.0000 C   0  0  0  0  0  0  0  0  0  0  0  0
   -1.4289    3.3000    0.0000 C   0  0  0  0  0  0  0  0  0  0  0  0
   -0.7145    3.7125    0.0000 C   0  0  0  0  0  0  0  0  0  0  0  0
    0.0000    3.3000    0.0000 C   0  0  0  0  0  0  0  0  0  0  0  0
    0.7145    3.7125    0.0000 C   0  0  0  0  0  0  0  0  0  0  0  0
    0.0000    2.4750    0.0000 C   0  0  0  0  0  0  0  0  0  0  0  0
    0.7145    2.0625    0.0000 O   0  0  0  0  0  0  0  0  0  0  0  0
    1.4289    2.4750    0.0000 C   0  0  0  0  0  0  0  0  0  0  0  0
    2.1434    2.0625    0.0000 C   0  0  0  0  0  0  0  0  0  0  0  0
    2.8579    2.4750    0.0000 C   0  0  0  0  0  0  0  0  0  0  0  0
    3.5724    2.0625    0.0000 C   0  0  0  0  0  0  0  0  0  0  0  0
    4.2868    2.4750    0.0000 O   0  0  0  0  0  0  0  0  0  0  0  0
    3.5724    1.2375    0.0000 O   0  0  0  0  0  0  0  0  0  0  0  0
   -0.7145    2.0625    0.0000 C   0  0  0  0  0  0  0  0  0  0  0  0
   -1.4289    2.4750    0.0000 C   0  0  0  0  0  0  0  0  0  0  0  0
   -0.7145    7.0125    0.0000 C   0  0  0  0  0  0  0  0  0  0  0  0
   -1.4289    7.4250    0.0000 C   0  0  0  0  0  0  0  0  0  0  0  0
  1  2  1  0  0  0  0
  2  3  2  0  0  0  0
  3  4  1  0  0  0  0
  4  5  2  0  0  0  0
  5  6  1  0  0  0  0
  6  7  1  0  0  0  0
  7  8  1  0  0  0  0
  8  9  2  0  0  0  0
  8 10  1  0  0  0  0
 10 11  2  0  0  0  0
 11 12  1  0  0  0  0
 12 13  2  0  0  0  0
 13 14  1  0  0  0  0
 14 15  2  0  0  0  0
 10 15  1  0  0  0  0
 11 16  1  0  0  0  0
 16 17  2  0  0  0  0
 17 18  1  0  0  0  0
 18 19  1  0  0  0  0
 18 20  2  0  0  0  0
 20 21  1  0  0  0  0
 21 22  1  0  0  0  0
 22 23  1  0  0  0  0
 23 24  1  0  0  0  0
 24 25  1  0  0  0  0
 25 26  1  0  0  0  0
 25 27  2  0  0  0  0
 20 28  1  0  0  0  0
 28 29  2  0  0  0  0
 16 29  1  0  0  0  0
  6 30  2  0  0  0  0
  2 30  1  0  0  0  0
 30 31  1  0  0  0  0
M  END
> <ID>
CPD_5245

$$$$
CPD_5250
  Mrv1822 09091914012D          

 28 31  0  0  0  0            999 V2000
   -4.2868    2.4750    0.0000 C   0  0  0  0  0  0  0  0  0  0  0  0
   -3.5724    2.0625    0.0000 C   0  0  0  0  0  0  0  0  0  0  0  0
   -2.8579    2.4750    0.0000 C   0  0  0  0  0  0  0  0  0  0  0  0
   -2.1434    2.0625    0.0000 C   0  0  0  0  0  0  0  0  0  0  0  0
   -2.1434    1.2375    0.0000 C   0  0  0  0  0  0  0  0  0  0  0  0
   -2.8579    0.8250    0.0000 C   0  0  0  0  0  0  0  0  0  0  0  0
   -2.8579    0.0000    0.0000 N   0  0  0  0  0  0  0  0  0  0  0  0
   -2.1434   -0.4125    0.0000 C   0  0  0  0  0  0  0  0  0  0  0  0
   -1.4289    0.0000    0.0000 O   0  0  0  0  0  0  0  0  0  0  0  0
   -2.1434   -1.2375    0.0000 C   0  0  0  0  0  0  0  0  0  0  0  0
   -1.4289   -1.6500    0.0000 C   0  0  0  0  0  0  0  0  0  0  0  0
   -1.4289   -2.4750    0.0000 C   0  0  0  0  0  0  0  0  0  0  0  0
   -2.1434   -2.8875    0.0000 C   0  0  0  0  0  0  0  0  0  0  0  0
   -2.8579   -2.4750    0.0000 C   0  0  0  0  0  0  0  0  0  0  0  0
   -2.8579   -1.6500    0.0000 C   0  0  0  0  0  0  0  0  0  0  0  0
   -0.7145   -1.2375    0.0000 C   0  0  0  0  0  0  0  0  0  0  0  0
    0.0000   -1.6500    0.0000 C   0  0  0  0  0  0  0  0  0  0  0  0
    0.7145   -1.2375    0.0000 C   0  0  0  0  0  0  0  0  0  0  0  0
    0.7145   -0.4125    0.0000 C   0  0  0  0  0  0  0  0  0  0  0  0
    1.4289   -0.0000    0.0000 O   0  0  0  0  0  0  0  0  0  0  0  0
    2.1434   -0.4125    0.0000 C   0  0  0  0  0  0  0  0  0  0  0  0
    2.1434   -1.2375    0.0000 C   0  0  0  0  0  0  0  0  0  0  0  0
    1.4289   -1.6500    0.0000 C   0  0  0  0  0  0  0  0  0  0  0  0
    1.4289   -2.4750    0.0000 N   0  0  0  0  0  0  0  0  0  0  0  0
    0.0000   -0.0000    0.0000 C   0  0  0  0  0  0  0  0  0  0  0  0
   -0.7145   -0.4125    0.0000 C   0  0  0  0  0  0  0  0  0  0  0  0
   -3.5724    1.2375    0.0000 C   0  0  0  0  0  0  0  0  0  0  0  0
   -4.2868    0.8250    0.0000 C   0  0  0  0  0  0  0  0  0  0  0  0
  1  2  1  0  0  0  0
  2  3  2  0  0  0  0
  3  4  1  0  0  0  0
  4  5  2  0  0  0  0
  5  6  1  0  0  0  0
  6  7  1  0  0  0  0
  7  8  1  0  0  0  0
  8  9  2  0  0  0  0
  8 10  1  0  0  0  0
 10 11  2  0  0  0  0
 11 12  1  0  0  0  0
 12 13  2  0  0  0  0
 13 14  1  0  0  0  0
 14 15  2  0  0  0  0
 10 15  1  0  0  0  0
 11 16  1  0  0  0  0
 16 17  2  0  0  0  0
 17 18  1  0  0  0  0
 18 19  2  0  0  0  0
 19 20  1  0  0  0  0
 20 21  1  0  0  0  0
 21 22  1  0  0  0  0
 22 23  1  0  0  0  0
 18 23  1  0  0  0  0
 23 24  1  0  0  0  0
 19 25  1  0  0  0  0
 25 26  2  0  0  0  0
 16 26  1  0  0  0  0
  6 27  2  0  0  0  0
  2 27  1  0  0  0  0
 27 28  1  0  0  0  0
M  END
> <ID>
CPD_5250

$$$$
CPD_5255
  Mrv1822 09091914012D          

 28 31  0  0  0  0            999 V2000
    6.7417    7.9974    0.0000 N   0  0  0  0  0  0  0  0  0  0  0  0
    7.2266    7.3300    0.0000 C   0  0  0  0  0  0  0  0  0  0  0  0
    8.0516    7.3300    0.0000 N   0  0  0  0  0  0  0  0  0  0  0  0
    8.3065    6.5454    0.0000 N   0  0  0  0  0  0  0  0  0  0  0  0
    7.6391    6.0604    0.0000 C   0  0  0  0  0  0  0  0  0  0  0  0
    7.6391    5.2354    0.0000 C   0  0  0  0  0  0  0  0  0  0  0  0
    6.9246    4.8229    0.0000 C   0  0  0  0  0  0  0  0  0  0  0  0
    6.9246    3.9979    0.0000 N   0  0  0  0  0  0  0  0  0  0  0  0
    6.2102    3.5854    0.0000 S   0  0  0  0  0  0  0  0  0  0  0  0
    5.7977    4.2999    0.0000 O   0  0  0  0  0  0  0  0  0  0  0  0
    6.6227    2.8710    0.0000 O   0  0  0  0  0  0  0  0  0  0  0  0
    5.4957    3.1729    0.0000 C   0  0  0  0  0  0  0  0  0  0  0  0
    5.4957    2.3479    0.0000 C   0  0  0  0  0  0  0  0  0  0  0  0
    4.7812    1.9354    0.0000 C   0  0  0  0  0  0  0  0  0  0  0  0
    4.0668    2.3479    0.0000 C   0  0  0  0  0  0  0  0  0  0  0  0
    4.0668    3.1729    0.0000 C   0  0  0  0  0  0  0  0  0  0  0  0
    4.7812    3.5854    0.0000 C   0  0  0  0  0  0  0  0  0  0  0  0
    3.3523    1.9354    0.0000 C   0  0  0  0  0  0  0  0  0  0  0  0
    3.3523    1.1104    0.0000 C   0  0  0  0  0  0  0  0  0  0  0  0
    2.6378    0.6979    0.0000 C   0  0  0  0  0  0  0  0  0  0  0  0
    1.9233    1.1104    0.0000 C   0  0  0  0  0  0  0  0  0  0  0  0
    1.1387    0.8555    0.0000 C   0  0  0  0  0  0  0  0  0  0  0  0
    0.8838    0.0709    0.0000 N   0  0  0  0  0  0  0  0  0  0  0  0
    0.6538    1.5229    0.0000 N   0  0  0  0  0  0  0  0  0  0  0  0
    1.1387    2.1904    0.0000 O   0  0  0  0  0  0  0  0  0  0  0  0
    1.9233    1.9354    0.0000 C   0  0  0  0  0  0  0  0  0  0  0  0
    2.6378    2.3479    0.0000 C   0  0  0  0  0  0  0  0  0  0  0  0
    6.9717    6.5454    0.0000 S   0  0  0  0  0  0  0  0  0  0  0  0
  1  2  1  0  0  0  0
  2  3  2  0  0  0  0
  3  4  1  0  0  0  0
  4  5  2  0  0  0  0
  5  6  1  0  0  0  0
  6  7  1  0  0  0  0
  7  8  1  0  0  0  0
  8  9  1  0  0  0  0
  9 10  2  0  0  0  0
  9 11  2  0  0  0  0
  9 12  1  0  0  0  0
 12 13  2  0  0  0  0
 13 14  1  0  0  0  0
 14 15  2  0  0  0  0
 15 16  1  0  0  0  0
 16 17  2  0  0  0  0
 12 17  1  0  0  0  0
 15 18  1  0  0  0  0
 18 19  2  0  0  0  0
 19 20  1  0  0  0  0
 20 21  2  0  0  0  0
 21 22  1  0  0  0  0
 22 23  1  0  0  0  0
 22 24  2  0  0  0  0
 24 25  1  0  0  0  0
 25 26  1  0  0  0  0
 21 26  1  0  0  0  0
 26 27  2  0  0  0  0
 18 27  1  0  0  0  0
  5 28  1  0  0  0  0
  2 28  1  0  0  0  0
M  END
> <ID>
CPD_5255

$$$$
CPD_5260
  Mrv1822 09091914012D          

 29 32  0  0  0  0            999 V2000
   -6.2301   -0.5082    0.0000 N   0  0  0  0  0  0  0  0  0  0  0  0
   -5.8945    0.2455    0.0000 C   0  0  0  0  0  0  0  0  0  0  0  0
   -6.3070    0.9600    0.0000 N   0  0  0  0  0  0  0  0  0  0  0  0
   -5.7550    1.5731    0.0000 N   0  0  0  0  0  0  0  0  0  0  0  0
   -5.0013    1.2375    0.0000 C   0  0  0  0  0  0  0  0  0  0  0  0
   -4.2868    1.6500    0.0000 C   0  0  0  0  0  0  0  0  0  0  0  0
   -3.5724    1.2375    0.0000 C   0  0  0  0  0  0  0  0  0  0  0  0
   -2.8579    1.6500    0.0000 N   0  0  0  0  0  0  0  0  0  0  0  0
   -2.1434    1.2375    0.0000 S   0  0  0  0  0  0  0  0  0  0  0  0
   -2.5559    0.5230    0.0000 O   0  0  0  0  0  0  0  0  0  0  0  0
   -1.7309    1.9520    0.0000 O   0  0  0  0  0  0  0  0  0  0  0  0
   -1.4289    0.8250    0.0000 C   0  0  0  0  0  0  0  0  0  0  0  0
   -0.7145    1.2375    0.0000 C   0  0  0  0  0  0  0  0  0  0  0  0
    0.0000    0.8250    0.0000 C   0  0  0  0  0  0  0  0  0  0  0  0
    0.0000    0.0000    0.0000 C   0  0  0  0  0  0  0  0  0  0  0  0
   -0.7145   -0.4125    0.0000 C   0  0  0  0  0  0  0  0  0  0  0  0
   -1.4289   -0.0000    0.0000 C   0  0  0  0  0  0  0  0  0  0  0  0
    0.7145   -0.4125    0.0000 C   0  0  0  0  0  0  0  0  0  0  0  0
    1.4289    0.0000    0.0000 N   0  0  0  0  0  0  0  0  0  0  0  0
    2.1434   -0.4125    0.0000 C   0  0  0  0  0  0  0  0  0  0  0  0
    2.8579    0.0000    0.0000 C   0  0  0  0  0  0  0  0  0  0  0  0
    3.5724   -0.4125    0.0000 C   0  0  0  0  0  0  0  0  0  0  0  0
    3.5724   -1.2375    0.0000 C   0  0  0  0  0  0  0  0  0  0  0  0
    2.8579   -1.6500    0.0000 C   0  0  0  0  0  0  0  0  0  0  0  0
    2.8579   -2.4750    0.0000 F   0  0  0  0  0  0  0  0  0  0  0  0
    2.1434   -1.2375    0.0000 C   0  0  0  0  0  0  0  0  0  0  0  0
    1.4289   -1.6500    0.0000 C   0  0  0  0  0  0  0  0  0  0  0  0
    0.7145   -1.2375    0.0000 C   0  0  0  0  0  0  0  0  0  0  0  0
   -5.0875    0.4170    0.0000 S   0  0  0  0  0  0  0  0  0  0  0  0
  1  2  1  0  0  0  0
  2  3  2  0  0  0  0
  3  4  1  0  0  0  0
  4  5  2  0  0  0  0
  5  6  1  0  0  0  0
  6  7  1  0  0  0  0
  7  8  1  0  0  0  0
  8  9  1  0  0  0  0
  9 10  2  0  0  0  0
  9 11  2  0  0  0  0
  9 12  1  0  0  0  0
 12 13  2  0  0  0  0
 13 14  1  0  0  0  0
 14 15  2  0  0  0  0
 15 16  1  0  0  0  0
 16 17  2  0  0  0  0
 12 17  1  0  0  0  0
 15 18  1  0  0  0  0
 18 19  2  0  0  0  0
 19 20  1  0  0  0  0
 20 21  2  0  0  0  0
 21 22  1  0  0  0  0
 22 23  2  0  0  0  0
 23 24  1  0  0  0  0
 24 25  1  0  0  0  0
 24 26  2  0  0  0  0
 20 26  1  0  0  0  0
 26 27  1  0  0  0  0
 27 28  2  0  0  0  0
 18 28  1  0  0  0  0
  5 29  1  0  0  0  0
  2 29  1  0  0  0  0
M  END
> <ID>
CPD_5260

$$$$
CPD_5265
  Mrv1822 09091914012D          

 36 39  0  0  0  0            999 V2000
   -0.4752   -1.7084    0.0000 C   0  0  0  0  0  0  0  0  0  0  0  0
    0.0768   -2.3215    0.0000 O   0  0  0  0  0  0  0  0  0  0  0  0
    0.8838   -2.1500    0.0000 C   0  0  0  0  0  0  0  0  0  0  0  0
    1.4358   -2.7631    0.0000 O   0  0  0  0  0  0  0  0  0  0  0  0
    1.1387   -1.3654    0.0000 C   0  0  0  0  0  0  0  0  0  0  0  0
    0.6538   -0.6979    0.0000 C   0  0  0  0  0  0  0  0  0  0  0  0
    1.1387   -0.0305    0.0000 N   0  0  0  0  0  0  0  0  0  0  0  0
    1.9233   -0.2854    0.0000 C   0  0  0  0  0  0  0  0  0  0  0  0
    2.6378    0.1271    0.0000 C   0  0  0  0  0  0  0  0  0  0  0  0
    3.3523   -0.2854    0.0000 C   0  0  0  0  0  0  0  0  0  0  0  0
    3.3523   -1.1104    0.0000 C   0  0  0  0  0  0  0  0  0  0  0  0
    2.6378   -1.5229    0.0000 C   0  0  0  0  0  0  0  0  0  0  0  0
    1.9233   -1.1104    0.0000 N   0  0  0  0  0  0  0  0  0  0  0  0
    4.0668   -1.5229    0.0000 C   0  0  0  0  0  0  0  0  0  0  0  0
    4.7812   -1.1104    0.0000 C   0  0  0  0  0  0  0  0  0  0  0  0
    4.7812   -0.2854    0.0000 C   0  0  0  0  0  0  0  0  0  0  0  0
    5.4957    0.1271    0.0000 N   0  0  0  0  0  0  0  0  0  0  0  0
    6.2102   -0.2854    0.0000 C   0  0  0  0  0  0  0  0  0  0  0  0
    6.9246    0.1271    0.0000 C   0  0  0  0  0  0  0  0  0  0  0  0
    7.6391   -0.2854    0.0000 O   0  0  0  0  0  0  0  0  0  0  0  0
    6.9246    0.9521    0.0000 O   0  0  0  0  0  0  0  0  0  0  0  0
    5.4957    0.9521    0.0000 S   0  0  0  0  0  0  0  0  0  0  0  0
    6.3207    0.9521    0.0000 O   0  0  0  0  0  0  0  0  0  0  0  0
    4.6707    0.9521    0.0000 O   0  0  0  0  0  0  0  0  0  0  0  0
    5.4957    1.7771    0.0000 C   0  0  0  0  0  0  0  0  0  0  0  0
    4.7812    2.1896    0.0000 C   0  0  0  0  0  0  0  0  0  0  0  0
    4.7812    3.0146    0.0000 C   0  0  0  0  0  0  0  0  0  0  0  0
    5.4957    3.4271    0.0000 C   0  0  0  0  0  0  0  0  0  0  0  0
    5.4957    4.2521    0.0000 Cl  0  0  0  0  0  0  0  0  0  0  0  0
    6.2102    3.0146    0.0000 C   0  0  0  0  0  0  0  0  0  0  0  0
    6.2102    2.1896    0.0000 C   0  0  0  0  0  0  0  0  0  0  0  0
    5.4957   -1.5229    0.0000 C   0  0  0  0  0  0  0  0  0  0  0  0
    6.2102   -1.1104    0.0000 F   0  0  0  0  0  0  0  0  0  0  0  0
    5.4957   -2.3479    0.0000 C   0  0  0  0  0  0  0  0  0  0  0  0
    4.7812   -2.7604    0.0000 C   0  0  0  0  0  0  0  0  0  0  0  0
    4.0668   -2.3479    0.0000 C   0  0  0  0  0  0  0  0  0  0  0  0
  1  2  1  0  0  0  0
  2  3  1  0  0  0  0
  3  4  2  0  0  0  0
  3  5  1  0  0  0  0
  5  6  2  0  0  0  0
  6  7  1  0  0  0  0
  7  8  2  0  0  0  0
  8  9  1  0  0  0  0
  9 10  2  0  0  0  0
 10 11  1  0  0  0  0
 11 12  2  0  0  0  0
 12 13  1  0  0  0  0
  5 13  1  0  0  0  0
  8 13  1  0  0  0  0
 11 14  1  0  0  0  0
 14 15  2  0  0  0  0
 15 16  1  0  0  0  0
 16 17  1  0  0  0  0
 17 18  1  0  0  0  0
 18 19  1  0  0  0  0
 19 20  1  0  0  0  0
 19 21  2  0  0  0  0
 17 22  1  0  0  0  0
 22 23  2  0  0  0  0
 22 24  2  0  0  0  0
 22 25  1  0  0  0  0
 25 26  2  0  0  0  0
 26 27  1  0  0  0  0
 27 28  2  0  0  0  0
 28 29  1  0  0  0  0
 28 30  1  0  0  0  0
 30 31  2  0  0  0  0
 25 31  1  0  0  0  0
 15 32  1  0  0  0  0
 32 33  1  0  0  0  0
 32 34  2  0  0  0  0
 34 35  1  0  0  0  0
 35 36  2  0  0  0  0
 14 36  1  0  0  0  0
M  END
> <ID>
CPD_5265

$$$$
CPD_5270
  Mrv1822 09091914012D          

 35 38  0  0  0  0            999 V2000
   -4.1183   -1.6215    0.0000 O   0  0  0  0  0  0  0  0  0  0  0  0
   -3.4863   -2.1518    0.0000 C   0  0  0  0  0  0  0  0  0  0  0  0
   -3.6296   -2.9643    0.0000 O   0  0  0  0  0  0  0  0  0  0  0  0
   -2.7111   -1.8697    0.0000 C   0  0  0  0  0  0  0  0  0  0  0  0
   -2.0791   -2.4000    0.0000 N   0  0  0  0  0  0  0  0  0  0  0  0
   -2.2223   -3.2124    0.0000 C   0  0  0  0  0  0  0  0  0  0  0  0
   -1.5904   -3.7427    0.0000 C   0  0  0  0  0  0  0  0  0  0  0  0
   -0.8151   -3.4606    0.0000 C   0  0  0  0  0  0  0  0  0  0  0  0
   -0.1831   -3.9909    0.0000 C   0  0  0  0  0  0  0  0  0  0  0  0
   -0.3264   -4.8033    0.0000 C   0  0  0  0  0  0  0  0  0  0  0  0
   -1.1016   -5.0855    0.0000 C   0  0  0  0  0  0  0  0  0  0  0  0
   -1.2449   -5.8980    0.0000 Cl  0  0  0  0  0  0  0  0  0  0  0  0
   -1.7336   -4.5552    0.0000 C   0  0  0  0  0  0  0  0  0  0  0  0
    0.3056   -5.3336    0.0000 C   0  0  0  0  0  0  0  0  0  0  0  0
    1.0808   -5.0515    0.0000 C   0  0  0  0  0  0  0  0  0  0  0  0
    1.2241   -4.2390    0.0000 F   0  0  0  0  0  0  0  0  0  0  0  0
    1.7128   -5.5818    0.0000 C   0  0  0  0  0  0  0  0  0  0  0  0
    1.5696   -6.3942    0.0000 C   0  0  0  0  0  0  0  0  0  0  0  0
    0.7943   -6.6764    0.0000 C   0  0  0  0  0  0  0  0  0  0  0  0
    0.1623   -6.1461    0.0000 C   0  0  0  0  0  0  0  0  0  0  0  0
    2.2016   -6.9245    0.0000 C   0  0  0  0  0  0  0  0  0  0  0  0
    2.6141   -7.6390    0.0000 C   0  0  0  0  0  0  0  0  0  0  0  0
    1.7891   -7.6390    0.0000 C   0  0  0  0  0  0  0  0  0  0  0  0
    2.8335   -6.3942    0.0000 C   0  0  0  0  0  0  0  0  0  0  0  0
    3.4655   -5.8639    0.0000 N   0  0  0  0  0  0  0  0  0  0  0  0
   -1.3038   -2.1178    0.0000 S   0  0  0  0  0  0  0  0  0  0  0  0
   -0.5286   -1.8356    0.0000 O   0  0  0  0  0  0  0  0  0  0  0  0
   -1.0217   -2.8931    0.0000 O   0  0  0  0  0  0  0  0  0  0  0  0
   -1.5860   -1.3426    0.0000 C   0  0  0  0  0  0  0  0  0  0  0  0
   -2.3985   -1.1993    0.0000 C   0  0  0  0  0  0  0  0  0  0  0  0
   -2.6806   -0.4241    0.0000 C   0  0  0  0  0  0  0  0  0  0  0  0
   -2.1503    0.2079    0.0000 C   0  0  0  0  0  0  0  0  0  0  0  0
   -2.4325    0.9832    0.0000 Cl  0  0  0  0  0  0  0  0  0  0  0  0
   -1.3379    0.0647    0.0000 C   0  0  0  0  0  0  0  0  0  0  0  0
   -1.0557   -0.7106    0.0000 C   0  0  0  0  0  0  0  0  0  0  0  0
  1  2  1  0  0  0  0
  2  3  2  0  0  0  0
  2  4  1  0  0  0  0
  4  5  1  0  0  0  0
  5  6  1  0  0  0  0
  6  7  1  0  0  0  0
  7  8  2  0  0  0  0
  8  9  1  0  0  0  0
  9 10  2  0  0  0  0
 10 11  1  0  0  0  0
 11 12  1  0  0  0  0
 11 13  2  0  0  0  0
  7 13  1  0  0  0  0
 10 14  1  0  0  0  0
 14 15  2  0  0  0  0
 15 16  1  0  0  0  0
 15 17  1  0  0  0  0
 17 18  2  0  0  0  0
 18 19  1  0  0  0  0
 19 20  2  0  0  0  0
 14 20  1  0  0  0  0
 18 21  1  0  0  0  0
 21 22  1  0  0  0  0
 22 23  1  0  0  0  0
 21 23  1  0  0  0  0
 21 24  1  0  0  0  0
 24 25  3  0  0  0  0
  5 26  1  0  0  0  0
 26 27  2  0  0  0  0
 26 28  2  0  0  0  0
 26 29  1  0  0  0  0
 29 30  2  0  0  0  0
 30 31  1  0  0  0  0
 31 32  2  0  0  0  0
 32 33  1  0  0  0  0
 32 34  1  0  0  0  0
 34 35  2  0  0  0  0
 29 35  1  0  0  0  0
M  END
> <ID>
CPD_5270

$$$$
CPD_5275
  Mrv1822 09091914012D          

 35 38  0  0  0  0            999 V2000
    0.4507    2.7649    0.0000 C   0  0  0  0  0  0  0  0  0  0  0  0
   -0.1014    2.1518    0.0000 C   0  0  0  0  0  0  0  0  0  0  0  0
    0.1536    1.3672    0.0000 O   0  0  0  0  0  0  0  0  0  0  0  0
   -0.3984    0.7541    0.0000 C   0  0  0  0  0  0  0  0  0  0  0  0
   -1.2054    0.9256    0.0000 O   0  0  0  0  0  0  0  0  0  0  0  0
   -0.1435   -0.0305    0.0000 C   0  0  0  0  0  0  0  0  0  0  0  0
   -0.6284   -0.6979    0.0000 C   0  0  0  0  0  0  0  0  0  0  0  0
   -1.4534   -0.6979    0.0000 N   0  0  0  0  0  0  0  0  0  0  0  0
   -1.8659   -1.4124    0.0000 C   0  0  0  0  0  0  0  0  0  0  0  0
   -1.4534   -2.1269    0.0000 O   0  0  0  0  0  0  0  0  0  0  0  0
   -2.6909   -1.4124    0.0000 C   0  0  0  0  0  0  0  0  0  0  0  0
   -3.1034   -2.1269    0.0000 C   0  0  0  0  0  0  0  0  0  0  0  0
   -3.9284   -2.1269    0.0000 C   0  0  0  0  0  0  0  0  0  0  0  0
   -4.3409   -1.4124    0.0000 C   0  0  0  0  0  0  0  0  0  0  0  0
   -3.9284   -0.6979    0.0000 C   0  0  0  0  0  0  0  0  0  0  0  0
   -3.1034   -0.6979    0.0000 C   0  0  0  0  0  0  0  0  0  0  0  0
   -2.6909   -2.8414    0.0000 C   0  0  0  0  0  0  0  0  0  0  0  0
   -1.8659   -2.8414    0.0000 C   0  0  0  0  0  0  0  0  0  0  0  0
   -1.4534   -3.5558    0.0000 C   0  0  0  0  0  0  0  0  0  0  0  0
   -1.8659   -4.2703    0.0000 C   0  0  0  0  0  0  0  0  0  0  0  0
   -2.6909   -4.2703    0.0000 C   0  0  0  0  0  0  0  0  0  0  0  0
   -3.1034   -4.9848    0.0000 O   0  0  0  0  0  0  0  0  0  0  0  0
   -2.6909   -5.6992    0.0000 C   0  0  0  0  0  0  0  0  0  0  0  0
   -2.2784   -6.4137    0.0000 C   0  0  0  0  0  0  0  0  0  0  0  0
   -3.4054   -6.1117    0.0000 C   0  0  0  0  0  0  0  0  0  0  0  0
   -1.9765   -5.2867    0.0000 C   0  0  0  0  0  0  0  0  0  0  0  0
   -3.1034   -3.5558    0.0000 N   0  0  0  0  0  0  0  0  0  0  0  0
   -0.1435   -1.3654    0.0000 S   0  0  0  0  0  0  0  0  0  0  0  0
    0.6411   -1.1104    0.0000 C   0  0  0  0  0  0  0  0  0  0  0  0
    0.6411   -0.2854    0.0000 C   0  0  0  0  0  0  0  0  0  0  0  0
    1.3556    0.1271    0.0000 C   0  0  0  0  0  0  0  0  0  0  0  0
    2.0701   -0.2854    0.0000 C   0  0  0  0  0  0  0  0  0  0  0  0
    2.0701   -1.1104    0.0000 C   0  0  0  0  0  0  0  0  0  0  0  0
    1.3556   -1.5229    0.0000 C   0  0  0  0  0  0  0  0  0  0  0  0
    1.3556   -2.3479    0.0000 O   0  0  0  0  0  0  0  0  0  0  0  0
  1  2  1  0  0  0  0
  2  3  1  0  0  0  0
  3  4  1  0  0  0  0
  4  5  2  0  0  0  0
  4  6  1  0  0  0  0
  6  7  2  0  0  0  0
  7  8  1  0  0  0  0
  8  9  1  0  0  0  0
  9 10  2  0  0  0  0
  9 11  1  0  0  0  0
 11 12  2  0  0  0  0
 12 13  1  0  0  0  0
 13 14  2  0  0  0  0
 14 15  1  0  0  0  0
 15 16  2  0  0  0  0
 11 16  1  0  0  0  0
 12 17  1  0  0  0  0
 17 18  2  0  0  0  0
 18 19  1  0  0  0  0
 19 20  2  0  0  0  0
 20 21  1  0  0  0  0
 21 22  1  0  0  0  0
 22 23  1  0  0  0  0
 23 24  1  0  0  0  0
 23 25  1  0  0  0  0
 23 26  1  0  0  0  0
 21 27  2  0  0  0  0
 17 27  1  0  0  0  0
  7 28  1  0  0  0  0
 28 29  1  0  0  0  0
 29 30  2  0  0  0  0
  6 30  1  0  0  0  0
 30 31  1  0  0  0  0
 31 32  1  0  0  0  0
 32 33  1  0  0  0  0
 33 34  1  0  0  0  0
 29 34  1  0  0  0  0
 34 35  2  0  0  0  0
M  END
> <ID>
CPD_5275

$$$$
CPD_5280
  Mrv1822 09091914012D          

 34 38  0  0  0  0            999 V2000
   -2.3739    2.5763    0.0000 C   0  0  0  0  0  0  0  0  0  0  0  0
   -2.9259    1.9632    0.0000 C   0  0  0  0  0  0  0  0  0  0  0  0
   -2.6709    1.1785    0.0000 O   0  0  0  0  0  0  0  0  0  0  0  0
   -3.2230    0.5655    0.0000 C   0  0  0  0  0  0  0  0  0  0  0  0
   -4.0300    0.7370    0.0000 O   0  0  0  0  0  0  0  0  0  0  0  0
   -2.9680   -0.2192    0.0000 C   0  0  0  0  0  0  0  0  0  0  0  0
   -3.4530   -0.8866    0.0000 C   0  0  0  0  0  0  0  0  0  0  0  0
   -4.2780   -0.8866    0.0000 N   0  0  0  0  0  0  0  0  0  0  0  0
   -4.6905   -1.6011    0.0000 C   0  0  0  0  0  0  0  0  0  0  0  0
   -4.2780   -2.3155    0.0000 O   0  0  0  0  0  0  0  0  0  0  0  0
   -5.5155   -1.6011    0.0000 C   0  0  0  0  0  0  0  0  0  0  0  0
   -5.9280   -2.3155    0.0000 C   0  0  0  0  0  0  0  0  0  0  0  0
   -6.7530   -2.3155    0.0000 C   0  0  0  0  0  0  0  0  0  0  0  0
   -7.1655   -1.6011    0.0000 C   0  0  0  0  0  0  0  0  0  0  0  0
   -6.7530   -0.8866    0.0000 C   0  0  0  0  0  0  0  0  0  0  0  0
   -5.9280   -0.8866    0.0000 C   0  0  0  0  0  0  0  0  0  0  0  0
   -5.5155   -3.0300    0.0000 C   0  0  0  0  0  0  0  0  0  0  0  0
   -4.6905   -3.0300    0.0000 C   0  0  0  0  0  0  0  0  0  0  0  0
   -4.2780   -3.7445    0.0000 C   0  0  0  0  0  0  0  0  0  0  0  0
   -4.6905   -4.4590    0.0000 C   0  0  0  0  0  0  0  0  0  0  0  0
   -4.1384   -5.0721    0.0000 N   0  0  0  0  0  0  0  0  0  0  0  0
   -3.3848   -4.7365    0.0000 N   0  0  0  0  0  0  0  0  0  0  0  0
   -3.4710   -3.9160    0.0000 C   0  0  0  0  0  0  0  0  0  0  0  0
   -2.8579   -3.3640    0.0000 O   0  0  0  0  0  0  0  0  0  0  0  0
   -5.5155   -4.4590    0.0000 C   0  0  0  0  0  0  0  0  0  0  0  0
   -5.9280   -3.7445    0.0000 C   0  0  0  0  0  0  0  0  0  0  0  0
   -2.9680   -1.5540    0.0000 S   0  0  0  0  0  0  0  0  0  0  0  0
   -2.1834   -1.2991    0.0000 C   0  0  0  0  0  0  0  0  0  0  0  0
   -2.1834   -0.4741    0.0000 C   0  0  0  0  0  0  0  0  0  0  0  0
   -1.4689   -0.0616    0.0000 C   0  0  0  0  0  0  0  0  0  0  0  0
   -0.7545   -0.4741    0.0000 C   0  0  0  0  0  0  0  0  0  0  0  0
   -0.7545   -1.2991    0.0000 C   0  0  0  0  0  0  0  0  0  0  0  0
   -1.4689   -1.7116    0.0000 C   0  0  0  0  0  0  0  0  0  0  0  0
   -1.4689   -2.5366    0.0000 O   0  0  0  0  0  0  0  0  0  0  0  0
  1  2  1  0  0  0  0
  2  3  1  0  0  0  0
  3  4  1  0  0  0  0
  4  5  2  0  0  0  0
  4  6  1  0  0  0  0
  6  7  2  0  0  0  0
  7  8  1  0  0  0  0
  8  9  1  0  0  0  0
  9 10  2  0  0  0  0
  9 11  1  0  0  0  0
 11 12  2  0  0  0  0
 12 13  1  0  0  0  0
 13 14  2  0  0  0  0
 14 15  1  0  0  0  0
 15 16  2  0  0  0  0
 11 16  1  0  0  0  0
 12 17  1  0  0  0  0
 17 18  2  0  0  0  0
 18 19  1  0  0  0  0
 19 20  2  0  0  0  0
 20 21  1  0  0  0  0
 21 22  1  0  0  0  0
 22 23  2  0  0  0  0
 19 23  1  0  0  0  0
 23 24  1  0  0  0  0
 20 25  1  0  0  0  0
 25 26  2  0  0  0  0
 17 26  1  0  0  0  0
  7 27  1  0  0  0  0
 27 28  1  0  0  0  0
 28 29  2  0  0  0  0
  6 29  1  0  0  0  0
 29 30  1  0  0  0  0
 30 31  1  0  0  0  0
 31 32  1  0  0  0  0
 32 33  1  0  0  0  0
 28 33  1  0  0  0  0
 33 34  2  0  0  0  0
M  END
> <ID>
CPD_5280

$$$$
CPD_5285
  Mrv1822 09091914012D          

 35 39  0  0  0  0            999 V2000
   -2.3739    2.5763    0.0000 C   0  0  0  0  0  0  0  0  0  0  0  0
   -2.9259    1.9632    0.0000 C   0  0  0  0  0  0  0  0  0  0  0  0
   -2.6709    1.1785    0.0000 O   0  0  0  0  0  0  0  0  0  0  0  0
   -3.2230    0.5655    0.0000 C   0  0  0  0  0  0  0  0  0  0  0  0
   -4.0300    0.7370    0.0000 O   0  0  0  0  0  0  0  0  0  0  0  0
   -2.9680   -0.2192    0.0000 C   0  0  0  0  0  0  0  0  0  0  0  0
   -3.4530   -0.8866    0.0000 C   0  0  0  0  0  0  0  0  0  0  0  0
   -4.2780   -0.8866    0.0000 N   0  0  0  0  0  0  0  0  0  0  0  0
   -4.6905   -1.6011    0.0000 C   0  0  0  0  0  0  0  0  0  0  0  0
   -4.2780   -2.3155    0.0000 O   0  0  0  0  0  0  0  0  0  0  0  0
   -5.5155   -1.6011    0.0000 C   0  0  0  0  0  0  0  0  0  0  0  0
   -5.9280   -2.3155    0.0000 C   0  0  0  0  0  0  0  0  0  0  0  0
   -6.7530   -2.3155    0.0000 C   0  0  0  0  0  0  0  0  0  0  0  0
   -7.1655   -1.6011    0.0000 C   0  0  0  0  0  0  0  0  0  0  0  0
   -6.7530   -0.8866    0.0000 C   0  0  0  0  0  0  0  0  0  0  0  0
   -5.9280   -0.8866    0.0000 C   0  0  0  0  0  0  0  0  0  0  0  0
   -5.5155   -3.0300    0.0000 C   0  0  0  0  0  0  0  0  0  0  0  0
   -4.6905   -3.0300    0.0000 N   0  0  0  0  0  0  0  0  0  0  0  0
   -4.2780   -3.7445    0.0000 C   0  0  0  0  0  0  0  0  0  0  0  0
   -3.4710   -3.9160    0.0000 N   0  0  0  0  0  0  0  0  0  0  0  0
   -3.3848   -4.7365    0.0000 N   0  0  0  0  0  0  0  0  0  0  0  0
   -2.6703   -5.1490    0.0000 C   0  0  0  0  0  0  0  0  0  0  0  0
   -4.1384   -5.0721    0.0000 C   0  0  0  0  0  0  0  0  0  0  0  0
   -4.6905   -4.4590    0.0000 C   0  0  0  0  0  0  0  0  0  0  0  0
   -5.5155   -4.4590    0.0000 C   0  0  0  0  0  0  0  0  0  0  0  0
   -5.9280   -5.1734    0.0000 C   0  0  0  0  0  0  0  0  0  0  0  0
   -5.9280   -3.7445    0.0000 C   0  0  0  0  0  0  0  0  0  0  0  0
   -2.9680   -1.5540    0.0000 S   0  0  0  0  0  0  0  0  0  0  0  0
   -2.1834   -1.2991    0.0000 C   0  0  0  0  0  0  0  0  0  0  0  0
   -2.1834   -0.4741    0.0000 C   0  0  0  0  0  0  0  0  0  0  0  0
   -1.4689   -0.0616    0.0000 C   0  0  0  0  0  0  0  0  0  0  0  0
   -0.7545   -0.4741    0.0000 C   0  0  0  0  0  0  0  0  0  0  0  0
   -0.7545   -1.2991    0.0000 C   0  0  0  0  0  0  0  0  0  0  0  0
   -1.4689   -1.7116    0.0000 C   0  0  0  0  0  0  0  0  0  0  0  0
   -1.4689   -2.5366    0.0000 O   0  0  0  0  0  0  0  0  0  0  0  0
  1  2  1  0  0  0  0
  2  3  1  0  0  0  0
  3  4  1  0  0  0  0
  4  5  2  0  0  0  0
  4  6  1  0  0  0  0
  6  7  2  0  0  0  0
  7  8  1  0  0  0  0
  8  9  1  0  0  0  0
  9 10  2  0  0  0  0
  9 11  1  0  0  0  0
 11 12  2  0  0  0  0
 12 13  1  0  0  0  0
 13 14  2  0  0  0  0
 14 15  1  0  0  0  0
 15 16  2  0  0  0  0
 11 16  1  0  0  0  0
 12 17  1  0  0  0  0
 17 18  2  0  0  0  0
 18 19  1  0  0  0  0
 19 20  2  0  0  0  0
 20 21  1  0  0  0  0
 21 22  1  0  0  0  0
 21 23  1  0  0  0  0
 23 24  2  0  0  0  0
 19 24  1  0  0  0  0
 24 25  1  0  0  0  0
 25 26  1  0  0  0  0
 25 27  2  0  0  0  0
 17 27  1  0  0  0  0
  7 28  1  0  0  0  0
 28 29  1  0  0  0  0
 29 30  2  0  0  0  0
  6 30  1  0  0  0  0
 30 31  1  0  0  0  0
 31 32  1  0  0  0  0
 32 33  1  0  0  0  0
 33 34  1  0  0  0  0
 29 34  1  0  0  0  0
 34 35  2  0  0  0  0
M  END
> <ID>
CPD_5285

$$$$
CPD_5290
  Mrv1822 09091914012D          

 30 33  0  0  0  0            999 V2000
    7.0714    3.1729    0.0000 C   0  0  0  0  0  0  0  0  0  0  0  0
    6.3569    2.7604    0.0000 O   0  0  0  0  0  0  0  0  0  0  0  0
    5.6424    3.1729    0.0000 C   0  0  0  0  0  0  0  0  0  0  0  0
    4.9279    2.7604    0.0000 C   0  0  0  0  0  0  0  0  0  0  0  0
    4.2135    3.1729    0.0000 C   0  0  0  0  0  0  0  0  0  0  0  0
    4.2135    3.9979    0.0000 C   0  0  0  0  0  0  0  0  0  0  0  0
    3.4990    4.4104    0.0000 O   0  0  0  0  0  0  0  0  0  0  0  0
    4.9279    4.4104    0.0000 C   0  0  0  0  0  0  0  0  0  0  0  0
    4.9279    5.2354    0.0000 N   0  0  0  0  0  0  0  0  0  0  0  0
    5.6424    3.9979    0.0000 C   0  0  0  0  0  0  0  0  0  0  0  0
    4.9279    1.9354    0.0000 C   0  0  0  0  0  0  0  0  0  0  0  0
    5.6424    1.5229    0.0000 C   0  0  0  0  0  0  0  0  0  0  0  0
    5.6424    0.6979    0.0000 C   0  0  0  0  0  0  0  0  0  0  0  0
    4.9279    0.2854    0.0000 C   0  0  0  0  0  0  0  0  0  0  0  0
    4.2135    0.6979    0.0000 C   0  0  0  0  0  0  0  0  0  0  0  0
    3.4990    0.2854    0.0000 N   0  0  0  0  0  0  0  0  0  0  0  0
    2.7845    0.6979    0.0000 S   0  0  0  0  0  0  0  0  0  0  0  0
    3.1970    1.4124    0.0000 O   0  0  0  0  0  0  0  0  0  0  0  0
    2.3720   -0.0165    0.0000 O   0  0  0  0  0  0  0  0  0  0  0  0
    2.0701    1.1104    0.0000 C   0  0  0  0  0  0  0  0  0  0  0  0
    1.3556    0.6979    0.0000 C   0  0  0  0  0  0  0  0  0  0  0  0
    0.6411    1.1104    0.0000 N   0  0  0  0  0  0  0  0  0  0  0  0
   -0.1435    0.8555    0.0000 C   0  0  0  0  0  0  0  0  0  0  0  0
   -0.3984    0.0709    0.0000 C   0  0  0  0  0  0  0  0  0  0  0  0
   -0.6284    1.5229    0.0000 N   0  0  0  0  0  0  0  0  0  0  0  0
   -0.1435    2.1904    0.0000 N   0  0  0  0  0  0  0  0  0  0  0  0
    0.6411    1.9354    0.0000 C   0  0  0  0  0  0  0  0  0  0  0  0
    1.3556    2.3479    0.0000 C   0  0  0  0  0  0  0  0  0  0  0  0
    2.0701    1.9354    0.0000 C   0  0  0  0  0  0  0  0  0  0  0  0
    4.2135    1.5229    0.0000 C   0  0  0  0  0  0  0  0  0  0  0  0
  1  2  1  0  0  0  0
  2  3  1  0  0  0  0
  3  4  2  0  0  0  0
  4  5  1  0  0  0  0
  5  6  2  0  0  0  0
  6  7  1  0  0  0  0
  6  8  1  0  0  0  0
  8  9  1  0  0  0  0
  8 10  2  0  0  0  0
  3 10  1  0  0  0  0
  4 11  1  0  0  0  0
 11 12  2  0  0  0  0
 12 13  1  0  0  0  0
 13 14  2  0  0  0  0
 14 15  1  0  0  0  0
 15 16  1  0  0  0  0
 16 17  1  0  0  0  0
 17 18  2  0  0  0  0
 17 19  2  0  0  0  0
 17 20  1  0  0  0  0
 20 21  2  0  0  0  0
 21 22  1  0  0  0  0
 22 23  1  0  0  0  0
 23 24  1  0  0  0  0
 23 25  2  0  0  0  0
 25 26  1  0  0  0  0
 26 27  2  0  0  0  0
 22 27  1  0  0  0  0
 27 28  1  0  0  0  0
 28 29  2  0  0  0  0
 20 29  1  0  0  0  0
 15 30  2  0  0  0  0
 11 30  1  0  0  0  0
M  END
> <ID>
CPD_5290

$$$$
CPD_5295
  Mrv1822 09091914012D          

 22 24  0  0  0  0            999 V2000
   -1.4289   -0.0000    0.0000 C   0  0  0  0  0  0  0  0  0  0  0  0
   -0.7145   -0.4125    0.0000 O   0  0  0  0  0  0  0  0  0  0  0  0
   -0.7145   -1.2375    0.0000 C   0  0  0  0  0  0  0  0  0  0  0  0
    0.0000   -1.6500    0.0000 C   0  0  0  0  0  0  0  0  0  0  0  0
    0.0000   -2.4750    0.0000 C   0  0  0  0  0  0  0  0  0  0  0  0
   -0.7145   -2.8875    0.0000 C   0  0  0  0  0  0  0  0  0  0  0  0
   -0.7145   -3.7125    0.0000 O   0  0  0  0  0  0  0  0  0  0  0  0
   -1.4289   -2.4750    0.0000 C   0  0  0  0  0  0  0  0  0  0  0  0
   -2.1434   -2.8875    0.0000 N   0  0  0  0  0  0  0  0  0  0  0  0
   -1.4289   -1.6500    0.0000 C   0  0  0  0  0  0  0  0  0  0  0  0
    0.7145   -1.2375    0.0000 C   0  0  0  0  0  0  0  0  0  0  0  0
    0.7145   -0.4125    0.0000 C   0  0  0  0  0  0  0  0  0  0  0  0
    1.4289    0.0000    0.0000 N   0  0  0  0  0  0  0  0  0  0  0  0
    2.1434   -0.4125    0.0000 C   0  0  0  0  0  0  0  0  0  0  0  0
    2.8579    0.0000    0.0000 O   0  0  0  0  0  0  0  0  0  0  0  0
    3.5724   -0.4125    0.0000 C   0  0  0  0  0  0  0  0  0  0  0  0
    3.5724   -1.2375    0.0000 C   0  0  0  0  0  0  0  0  0  0  0  0
    2.8579   -1.6500    0.0000 O   0  0  0  0  0  0  0  0  0  0  0  0
    2.1434   -1.2375    0.0000 C   0  0  0  0  0  0  0  0  0  0  0  0
    1.4289   -1.6500    0.0000 C   0  0  0  0  0  0  0  0  0  0  0  0
    1.4289   -2.4750    0.0000 C   0  0  0  0  0  0  0  0  0  0  0  0
    0.7145   -2.8875    0.0000 O   0  0  0  0  0  0  0  0  0  0  0  0
  1  2  1  0  0  0  0
  2  3  1  0  0  0  0
  3  4  2  0  0  0  0
  4  5  1  0  0  0  0
  5  6  2  0  0  0  0
  6  7  1  0  0  0  0
  6  8  1  0  0  0  0
  8  9  1  0  0  0  0
  8 10  2  0  0  0  0
  3 10  1  0  0  0  0
  4 11  1  0  0  0  0
 11 12  2  0  0  0  0
 12 13  1  0  0  0  0
 13 14  2  0  0  0  0
 14 15  1  0  0  0  0
 15 16  1  0  0  0  0
 16 17  1  0  0  0  0
 17 18  1  0  0  0  0
 18 19  1  0  0  0  0
 14 19  1  0  0  0  0
 19 20  2  0  0  0  0
 11 20  1  0  0  0  0
 20 21  1  0  0  0  0
 21 22  1  0  0  0  0
M  END
> <ID>
CPD_5295

$$$$
CPD_5300
  Mrv1822 09091914012D          

 28 31  0  0  0  0            999 V2000
    9.2148   -0.5396    0.0000 C   0  0  0  0  0  0  0  0  0  0  0  0
    8.5003   -0.9521    0.0000 O   0  0  0  0  0  0  0  0  0  0  0  0
    7.7858   -0.5396    0.0000 C   0  0  0  0  0  0  0  0  0  0  0  0
    7.0714   -0.9521    0.0000 C   0  0  0  0  0  0  0  0  0  0  0  0
    6.3569   -0.5396    0.0000 C   0  0  0  0  0  0  0  0  0  0  0  0
    6.3569    0.2854    0.0000 C   0  0  0  0  0  0  0  0  0  0  0  0
    7.0714    0.6979    0.0000 C   0  0  0  0  0  0  0  0  0  0  0  0
    7.7858    0.2854    0.0000 C   0  0  0  0  0  0  0  0  0  0  0  0
    5.6424    0.6979    0.0000 S   0  0  0  0  0  0  0  0  0  0  0  0
    6.0549    1.4124    0.0000 O   0  0  0  0  0  0  0  0  0  0  0  0
    5.2299   -0.0165    0.0000 O   0  0  0  0  0  0  0  0  0  0  0  0
    4.9279    1.1104    0.0000 N   0  0  0  0  0  0  0  0  0  0  0  0
    4.2135    0.6979    0.0000 C   0  0  0  0  0  0  0  0  0  0  0  0
    4.2135   -0.1271    0.0000 C   0  0  0  0  0  0  0  0  0  0  0  0
    3.4990   -0.5396    0.0000 C   0  0  0  0  0  0  0  0  0  0  0  0
    2.7845   -0.1271    0.0000 C   0  0  0  0  0  0  0  0  0  0  0  0
    2.7845    0.6979    0.0000 C   0  0  0  0  0  0  0  0  0  0  0  0
    3.4990    1.1104    0.0000 C   0  0  0  0  0  0  0  0  0  0  0  0
    3.4990    1.9354    0.0000 C   0  0  0  0  0  0  0  0  0  0  0  0
    2.0701    1.1104    0.0000 C   0  0  0  0  0  0  0  0  0  0  0  0
    1.3556    0.6979    0.0000 C   0  0  0  0  0  0  0  0  0  0  0  0
    0.6411    1.1104    0.0000 C   0  0  0  0  0  0  0  0  0  0  0  0
   -0.1435    0.8555    0.0000 C   0  0  0  0  0  0  0  0  0  0  0  0
   -0.6284    1.5229    0.0000 N   0  0  0  0  0  0  0  0  0  0  0  0
   -0.1435    2.1904    0.0000 N   0  0  0  0  0  0  0  0  0  0  0  0
    0.6411    1.9354    0.0000 N   0  0  0  0  0  0  0  0  0  0  0  0
    1.3556    2.3479    0.0000 C   0  0  0  0  0  0  0  0  0  0  0  0
    2.0701    1.9354    0.0000 C   0  0  0  0  0  0  0  0  0  0  0  0
  1  2  1  0  0  0  0
  2  3  1  0  0  0  0
  3  4  2  0  0  0  0
  4  5  1  0  0  0  0
  5  6  2  0  0  0  0
  6  7  1  0  0  0  0
  7  8  2  0  0  0  0
  3  8  1  0  0  0  0
  6  9  1  0  0  0  0
  9 10  2  0  0  0  0
  9 11  2  0  0  0  0
  9 12  1  0  0  0  0
 12 13  1  0  0  0  0
 13 14  2  0  0  0  0
 14 15  1  0  0  0  0
 15 16  2  0  0  0  0
 16 17  1  0  0  0  0
 17 18  2  0  0  0  0
 13 18  1  0  0  0  0
 18 19  1  0  0  0  0
 17 20  1  0  0  0  0
 20 21  2  0  0  0  0
 21 22  1  0  0  0  0
 22 23  2  0  0  0  0
 23 24  1  0  0  0  0
 24 25  2  0  0  0  0
 25 26  1  0  0  0  0
 22 26  1  0  0  0  0
 26 27  1  0  0  0  0
 27 28  2  0  0  0  0
 20 28  1  0  0  0  0
M  END
> <ID>
CPD_5300

$$$$
CPD_5305
  Mrv1822 09091914012D          

 28 30  0  0  0  0            999 V2000
    1.4289   -2.4750    0.0000 C   0  0  0  0  0  0  0  0  0  0  0  0
    1.4289   -3.3000    0.0000 C   0  0  0  0  0  0  0  0  0  0  0  0
    2.1434   -3.7125    0.0000 N   0  0  0  0  0  0  0  0  0  0  0  0
    2.1434   -4.5375    0.0000 C   0  0  0  0  0  0  0  0  0  0  0  0
    2.8579   -4.9500    0.0000 N   0  0  0  0  0  0  0  0  0  0  0  0
    2.8579   -5.7750    0.0000 C   0  0  0  0  0  0  0  0  0  0  0  0
    2.1434   -6.1875    0.0000 C   0  0  0  0  0  0  0  0  0  0  0  0
    1.4289   -5.7750    0.0000 C   0  0  0  0  0  0  0  0  0  0  0  0
    1.4289   -4.9500    0.0000 C   0  0  0  0  0  0  0  0  0  0  0  0
    3.5724   -6.1875    0.0000 C   0  0  0  0  0  0  0  0  0  0  0  0
    4.2868   -5.7750    0.0000 C   0  0  0  0  0  0  0  0  0  0  0  0
    4.2868   -4.9500    0.0000 C   0  0  0  0  0  0  0  0  0  0  0  0
    5.0013   -6.1875    0.0000 C   0  0  0  0  0  0  0  0  0  0  0  0
    5.7158   -5.7750    0.0000 N   0  0  0  0  0  0  0  0  0  0  0  0
    6.4302   -6.1875    0.0000 S   0  0  0  0  0  0  0  0  0  0  0  0
    6.0177   -6.9020    0.0000 O   0  0  0  0  0  0  0  0  0  0  0  0
    6.8427   -5.4730    0.0000 O   0  0  0  0  0  0  0  0  0  0  0  0
    7.1447   -6.6000    0.0000 C   0  0  0  0  0  0  0  0  0  0  0  0
    7.8592   -6.1875    0.0000 C   0  0  0  0  0  0  0  0  0  0  0  0
    8.5737   -6.6000    0.0000 C   0  0  0  0  0  0  0  0  0  0  0  0
    8.5737   -7.4250    0.0000 C   0  0  0  0  0  0  0  0  0  0  0  0
    9.2881   -7.8375    0.0000 O   0  0  0  0  0  0  0  0  0  0  0  0
   10.0026   -7.4250    0.0000 C   0  0  0  0  0  0  0  0  0  0  0  0
    7.8592   -7.8375    0.0000 C   0  0  0  0  0  0  0  0  0  0  0  0
    7.1447   -7.4250    0.0000 C   0  0  0  0  0  0  0  0  0  0  0  0
    5.0013   -7.0125    0.0000 C   0  0  0  0  0  0  0  0  0  0  0  0
    4.2868   -7.4250    0.0000 C   0  0  0  0  0  0  0  0  0  0  0  0
    3.5724   -7.0125    0.0000 C   0  0  0  0  0  0  0  0  0  0  0  0
  1  2  1  0  0  0  0
  2  3  1  0  0  0  0
  3  4  1  0  0  0  0
  4  5  2  0  0  0  0
  5  6  1  0  0  0  0
  6  7  2  0  0  0  0
  7  8  1  0  0  0  0
  8  9  2  0  0  0  0
  4  9  1  0  0  0  0
  6 10  1  0  0  0  0
 10 11  2  0  0  0  0
 11 12  1  0  0  0  0
 11 13  1  0  0  0  0
 13 14  1  0  0  0  0
 14 15  1  0  0  0  0
 15 16  2  0  0  0  0
 15 17  2  0  0  0  0
 15 18  1  0  0  0  0
 18 19  2  0  0  0  0
 19 20  1  0  0  0  0
 20 21  2  0  0  0  0
 21 22  1  0  0  0  0
 22 23  1  0  0  0  0
 21 24  1  0  0  0  0
 24 25  2  0  0  0  0
 18 25  1  0  0  0  0
 13 26  2  0  0  0  0
 26 27  1  0  0  0  0
 27 28  2  0  0  0  0
 10 28  1  0  0  0  0
M  END
> <ID>
CPD_5305

$$$$
CPD_5310
  Mrv1822 09091914012D          

 32 34  0  0  0  0            999 V2000
    1.4289   -2.4750    0.0000 C   0  0  0  0  0  0  0  0  0  0  0  0
    1.4289   -3.3000    0.0000 C   0  0  0  0  0  0  0  0  0  0  0  0
    2.1434   -3.7125    0.0000 O   0  0  0  0  0  0  0  0  0  0  0  0
    2.1434   -4.5375    0.0000 C   0  0  0  0  0  0  0  0  0  0  0  0
    2.8579   -4.9500    0.0000 C   0  0  0  0  0  0  0  0  0  0  0  0
    2.8579   -5.7750    0.0000 C   0  0  0  0  0  0  0  0  0  0  0  0
    2.1434   -6.1875    0.0000 C   0  0  0  0  0  0  0  0  0  0  0  0
    1.4289   -5.7750    0.0000 C   0  0  0  0  0  0  0  0  0  0  0  0
    1.4289   -4.9500    0.0000 C   0  0  0  0  0  0  0  0  0  0  0  0
    2.1434   -7.0125    0.0000 N   0  0  0  0  0  0  0  0  0  0  0  0
    2.8579   -7.4250    0.0000 C   0  0  0  0  0  0  0  0  0  0  0  0
    2.8579   -8.2500    0.0000 C   0  0  0  0  0  0  0  0  0  0  0  0
    2.1434   -8.6625    0.0000 O   0  0  0  0  0  0  0  0  0  0  0  0
    3.5724   -8.6625    0.0000 O   0  0  0  0  0  0  0  0  0  0  0  0
    1.4289   -7.4250    0.0000 S   0  0  0  0  0  0  0  0  0  0  0  0
    1.0164   -6.7105    0.0000 O   0  0  0  0  0  0  0  0  0  0  0  0
    1.8414   -8.1395    0.0000 O   0  0  0  0  0  0  0  0  0  0  0  0
    0.7145   -7.8375    0.0000 C   0  0  0  0  0  0  0  0  0  0  0  0
    0.7145   -8.6625    0.0000 C   0  0  0  0  0  0  0  0  0  0  0  0
    0.0000   -9.0750    0.0000 C   0  0  0  0  0  0  0  0  0  0  0  0
   -0.7145   -8.6625    0.0000 C   0  0  0  0  0  0  0  0  0  0  0  0
   -0.7145   -7.8375    0.0000 C   0  0  0  0  0  0  0  0  0  0  0  0
    0.0000   -7.4250    0.0000 C   0  0  0  0  0  0  0  0  0  0  0  0
   -1.4289   -9.0750    0.0000 C   0  0  0  0  0  0  0  0  0  0  0  0
   -1.4289   -9.9000    0.0000 C   0  0  0  0  0  0  0  0  0  0  0  0
   -2.1434  -10.3125    0.0000 C   0  0  0  0  0  0  0  0  0  0  0  0
   -2.8579   -9.9000    0.0000 C   0  0  0  0  0  0  0  0  0  0  0  0
   -3.5724  -10.3125    0.0000 C   0  0  0  0  0  0  0  0  0  0  0  0
   -4.2868  -10.7250    0.0000 N   0  0  0  0  0  0  0  0  0  0  0  0
   -2.8579   -9.0750    0.0000 C   0  0  0  0  0  0  0  0  0  0  0  0
   -3.5724   -8.6625    0.0000 N   0  0  0  0  0  0  0  0  0  0  0  0
   -2.1434   -8.6625    0.0000 C   0  0  0  0  0  0  0  0  0  0  0  0
  1  2  1  0  0  0  0
  2  3  1  0  0  0  0
  3  4  1  0  0  0  0
  4  5  2  0  0  0  0
  5  6  1  0  0  0  0
  6  7  2  0  0  0  0
  7  8  1  0  0  0  0
  8  9  2  0  0  0  0
  4  9  1  0  0  0  0
  7 10  1  0  0  0  0
 10 11  1  0  0  0  0
 11 12  1  0  0  0  0
 12 13  1  0  0  0  0
 12 14  2  0  0  0  0
 10 15  1  0  0  0  0
 15 16  2  0  0  0  0
 15 17  2  0  0  0  0
 15 18  1  0  0  0  0
 18 19  2  0  0  0  0
 19 20  1  0  0  0  0
 20 21  2  0  0  0  0
 21 22  1  0  0  0  0
 22 23  2  0  0  0  0
 18 23  1  0  0  0  0
 21 24  1  0  0  0  0
 24 25  2  0  0  0  0
 25 26  1  0  0  0  0
 26 27  2  0  0  0  0
 27 28  1  0  0  0  0
 28 29  3  0  0  0  0
 27 30  1  0  0  0  0
 30 31  1  0  0  0  0
 30 32  2  0  0  0  0
 24 32  1  0  0  0  0
M  END
> <ID>
CPD_5310

$$$$
CPD_5315
  Mrv1822 09091914012D          

 37 39  0  0  0  0            999 V2000
    5.3033   -6.4895    0.0000 C   0  0  0  0  0  0  0  0  0  0  0  0
    5.7158   -5.7750    0.0000 C   0  0  0  0  0  0  0  0  0  0  0  0
    6.5408   -5.7750    0.0000 C   0  0  0  0  0  0  0  0  0  0  0  0
    6.9533   -5.0605    0.0000 C   0  0  0  0  0  0  0  0  0  0  0  0
    7.7783   -5.0605    0.0000 N   0  0  0  0  0  0  0  0  0  0  0  0
    8.1908   -5.7750    0.0000 C   0  0  0  0  0  0  0  0  0  0  0  0
    9.0158   -5.7750    0.0000 O   0  0  0  0  0  0  0  0  0  0  0  0
    7.7783   -6.4895    0.0000 C   0  0  0  0  0  0  0  0  0  0  0  0
    8.1908   -7.2039    0.0000 C   0  0  0  0  0  0  0  0  0  0  0  0
    7.7783   -7.9184    0.0000 C   0  0  0  0  0  0  0  0  0  0  0  0
    6.9533   -7.9184    0.0000 C   0  0  0  0  0  0  0  0  0  0  0  0
    6.5408   -7.2039    0.0000 C   0  0  0  0  0  0  0  0  0  0  0  0
    5.7158   -7.2039    0.0000 F   0  0  0  0  0  0  0  0  0  0  0  0
    6.9533   -6.4895    0.0000 C   0  0  0  0  0  0  0  0  0  0  0  0
    9.0158   -7.2039    0.0000 C   0  0  0  0  0  0  0  0  0  0  0  0
    9.4283   -6.4895    0.0000 C   0  0  0  0  0  0  0  0  0  0  0  0
   10.2533   -6.4895    0.0000 C   0  0  0  0  0  0  0  0  0  0  0  0
   10.6658   -7.2039    0.0000 C   0  0  0  0  0  0  0  0  0  0  0  0
   10.2533   -7.9184    0.0000 C   0  0  0  0  0  0  0  0  0  0  0  0
    9.4283   -7.9184    0.0000 C   0  0  0  0  0  0  0  0  0  0  0  0
   11.4908   -7.2039    0.0000 S   0  0  0  0  0  0  0  0  0  0  0  0
   11.4908   -6.3789    0.0000 O   0  0  0  0  0  0  0  0  0  0  0  0
   11.4908   -8.0289    0.0000 O   0  0  0  0  0  0  0  0  0  0  0  0
   12.3158   -7.2039    0.0000 N   0  0  0  0  0  0  0  0  0  0  0  0
   12.7283   -6.4895    0.0000 C   0  0  0  0  0  0  0  0  0  0  0  0
   12.3158   -5.7750    0.0000 C   0  0  0  0  0  0  0  0  0  0  0  0
   11.4908   -5.7750    0.0000 O   0  0  0  0  0  0  0  0  0  0  0  0
   12.7283   -5.0605    0.0000 O   0  0  0  0  0  0  0  0  0  0  0  0
   12.7283   -7.9184    0.0000 C   0  0  0  0  0  0  0  0  0  0  0  0
   13.5533   -7.9184    0.0000 C   0  0  0  0  0  0  0  0  0  0  0  0
   13.9658   -8.6329    0.0000 C   0  0  0  0  0  0  0  0  0  0  0  0
   13.5533   -9.3474    0.0000 C   0  0  0  0  0  0  0  0  0  0  0  0
   13.9658  -10.0618    0.0000 O   0  0  0  0  0  0  0  0  0  0  0  0
   13.5533  -10.7763    0.0000 C   0  0  0  0  0  0  0  0  0  0  0  0
   13.9658  -11.4908    0.0000 C   0  0  0  0  0  0  0  0  0  0  0  0
   12.7283   -9.3474    0.0000 C   0  0  0  0  0  0  0  0  0  0  0  0
   12.3158   -8.6329    0.0000 C   0  0  0  0  0  0  0  0  0  0  0  0
  1  2  1  0  0  0  0
  2  3  1  0  0  0  0
  3  4  1  0  0  0  0
  4  5  1  0  0  0  0
  5  6  1  0  0  0  0
  6  7  2  0  0  0  0
  6  8  1  0  0  0  0
  8  9  2  0  0  0  0
  9 10  1  0  0  0  0
 10 11  2  0  0  0  0
 11 12  1  0  0  0  0
 12 13  1  0  0  0  0
 12 14  2  0  0  0  0
  8 14  1  0  0  0  0
  9 15  1  0  0  0  0
 15 16  2  0  0  0  0
 16 17  1  0  0  0  0
 17 18  2  0  0  0  0
 18 19  1  0  0  0  0
 19 20  2  0  0  0  0
 15 20  1  0  0  0  0
 18 21  1  0  0  0  0
 21 22  2  0  0  0  0
 21 23  2  0  0  0  0
 21 24  1  0  0  0  0
 24 25  1  0  0  0  0
 25 26  1  0  0  0  0
 26 27  1  0  0  0  0
 26 28  2  0  0  0  0
 24 29  1  0  0  0  0
 29 30  2  0  0  0  0
 30 31  1  0  0  0  0
 31 32  2  0  0  0  0
 32 33  1  0  0  0  0
 33 34  1  0  0  0  0
 34 35  1  0  0  0  0
 32 36  1  0  0  0  0
 36 37  2  0  0  0  0
 29 37  1  0  0  0  0
M  END
> <ID>
CPD_5315

$$$$
CPD_5320
  Mrv1822 09091914012D          

 34 36  0  0  0  0            999 V2000
    1.4289   -2.4750    0.0000 C   0  0  0  0  0  0  0  0  0  0  0  0
    1.4289   -3.3000    0.0000 C   0  0  0  0  0  0  0  0  0  0  0  0
    2.1434   -3.7125    0.0000 O   0  0  0  0  0  0  0  0  0  0  0  0
    2.1434   -4.5375    0.0000 C   0  0  0  0  0  0  0  0  0  0  0  0
    2.8579   -4.9500    0.0000 C   0  0  0  0  0  0  0  0  0  0  0  0
    2.8579   -5.7750    0.0000 C   0  0  0  0  0  0  0  0  0  0  0  0
    2.1434   -6.1875    0.0000 C   0  0  0  0  0  0  0  0  0  0  0  0
    1.4289   -5.7750    0.0000 C   0  0  0  0  0  0  0  0  0  0  0  0
    1.4289   -4.9500    0.0000 C   0  0  0  0  0  0  0  0  0  0  0  0
    2.1434   -7.0125    0.0000 N   0  0  0  0  0  0  0  0  0  0  0  0
    2.8579   -7.4250    0.0000 C   0  0  0  0  0  0  0  0  0  0  0  0
    2.8579   -8.2500    0.0000 C   0  0  0  0  0  0  0  0  0  0  0  0
    2.1434   -8.6625    0.0000 O   0  0  0  0  0  0  0  0  0  0  0  0
    3.5724   -8.6625    0.0000 O   0  0  0  0  0  0  0  0  0  0  0  0
    1.4289   -7.4250    0.0000 S   0  0  0  0  0  0  0  0  0  0  0  0
    1.0164   -6.7105    0.0000 O   0  0  0  0  0  0  0  0  0  0  0  0
    1.8414   -8.1395    0.0000 O   0  0  0  0  0  0  0  0  0  0  0  0
    0.7145   -7.8375    0.0000 C   0  0  0  0  0  0  0  0  0  0  0  0
    0.7145   -8.6625    0.0000 C   0  0  0  0  0  0  0  0  0  0  0  0
    0.0000   -9.0750    0.0000 C   0  0  0  0  0  0  0  0  0  0  0  0
   -0.7145   -8.6625    0.0000 C   0  0  0  0  0  0  0  0  0  0  0  0
   -0.7145   -7.8375    0.0000 C   0  0  0  0  0  0  0  0  0  0  0  0
    0.0000   -7.4250    0.0000 C   0  0  0  0  0  0  0  0  0  0  0  0
   -1.4289   -9.0750    0.0000 C   0  0  0  0  0  0  0  0  0  0  0  0
   -1.4289   -9.9000    0.0000 C   0  0  0  0  0  0  0  0  0  0  0  0
   -0.7145  -10.3125    0.0000 N   0  0  0  0  0  0  0  0  0  0  0  0
   -0.7145  -11.1375    0.0000 C   0  0  0  0  0  0  0  0  0  0  0  0
   -1.4289  -11.5500    0.0000 C   0  0  0  0  0  0  0  0  0  0  0  0
   -0.0000  -11.5500    0.0000 O   0  0  0  0  0  0  0  0  0  0  0  0
   -2.1434  -10.3125    0.0000 C   0  0  0  0  0  0  0  0  0  0  0  0
   -2.8579   -9.9000    0.0000 C   0  0  0  0  0  0  0  0  0  0  0  0
   -2.8579   -9.0750    0.0000 C   0  0  0  0  0  0  0  0  0  0  0  0
   -3.5724   -8.6625    0.0000 Cl  0  0  0  0  0  0  0  0  0  0  0  0
   -2.1434   -8.6625    0.0000 C   0  0  0  0  0  0  0  0  0  0  0  0
  1  2  1  0  0  0  0
  2  3  1  0  0  0  0
  3  4  1  0  0  0  0
  4  5  2  0  0  0  0
  5  6  1  0  0  0  0
  6  7  2  0  0  0  0
  7  8  1  0  0  0  0
  8  9  2  0  0  0  0
  4  9  1  0  0  0  0
  7 10  1  0  0  0  0
 10 11  1  0  0  0  0
 11 12  1  0  0  0  0
 12 13  1  0  0  0  0
 12 14  2  0  0  0  0
 10 15  1  0  0  0  0
 15 16  2  0  0  0  0
 15 17  2  0  0  0  0
 15 18  1  0  0  0  0
 18 19  2  0  0  0  0
 19 20  1  0  0  0  0
 20 21  2  0  0  0  0
 21 22  1  0  0  0  0
 22 23  2  0  0  0  0
 18 23  1  0  0  0  0
 21 24  1  0  0  0  0
 24 25  2  0  0  0  0
 25 26  1  0  0  0  0
 26 27  1  0  0  0  0
 27 28  1  0  0  0  0
 27 29  2  0  0  0  0
 25 30  1  0  0  0  0
 30 31  2  0  0  0  0
 31 32  1  0  0  0  0
 32 33  1  0  0  0  0
 32 34  2  0  0  0  0
 24 34  1  0  0  0  0
M  END
> <ID>
CPD_5320

$$$$
CPD_5325
  Mrv1822 09091914012D          

 24 26  0  0  0  0            999 V2000
   -0.7145   -1.2375    0.0000 C   0  0  0  0  0  0  0  0  0  0  0  0
    0.0000   -1.6500    0.0000 C   0  0  0  0  0  0  0  0  0  0  0  0
    0.0000   -2.4750    0.0000 O   0  0  0  0  0  0  0  0  0  0  0  0
    0.7145   -2.8875    0.0000 C   0  0  0  0  0  0  0  0  0  0  0  0
    1.4289   -2.4750    0.0000 O   0  0  0  0  0  0  0  0  0  0  0  0
    0.7145   -3.7125    0.0000 N   0  0  0  0  0  0  0  0  0  0  0  0
    1.3819   -4.1974    0.0000 N   0  0  0  0  0  0  0  0  0  0  0  0
    1.1270   -4.9820    0.0000 C   0  0  0  0  0  0  0  0  0  0  0  0
    0.3020   -4.9820    0.0000 C   0  0  0  0  0  0  0  0  0  0  0  0
    0.0470   -4.1974    0.0000 C   0  0  0  0  0  0  0  0  0  0  0  0
   -0.7376   -3.9425    0.0000 N   0  0  0  0  0  0  0  0  0  0  0  0
    1.6119   -5.6495    0.0000 C   0  0  0  0  0  0  0  0  0  0  0  0
    2.4324   -5.5632    0.0000 C   0  0  0  0  0  0  0  0  0  0  0  0
    2.9173   -6.2307    0.0000 C   0  0  0  0  0  0  0  0  0  0  0  0
    2.5817   -6.9844    0.0000 C   0  0  0  0  0  0  0  0  0  0  0  0
    1.7613   -7.0706    0.0000 C   0  0  0  0  0  0  0  0  0  0  0  0
    1.2763   -6.4032    0.0000 C   0  0  0  0  0  0  0  0  0  0  0  0
    3.0667   -7.6518    0.0000 C   0  0  0  0  0  0  0  0  0  0  0  0
    3.8871   -7.5656    0.0000 C   0  0  0  0  0  0  0  0  0  0  0  0
    4.3721   -8.2330    0.0000 C   0  0  0  0  0  0  0  0  0  0  0  0
    4.0365   -8.9867    0.0000 C   0  0  0  0  0  0  0  0  0  0  0  0
    3.2160   -9.0729    0.0000 C   0  0  0  0  0  0  0  0  0  0  0  0
    2.8805   -9.8266    0.0000 O   0  0  0  0  0  0  0  0  0  0  0  0
    2.7311   -8.4055    0.0000 N   0  0  0  0  0  0  0  0  0  0  0  0
  1  2  1  0  0  0  0
  2  3  1  0  0  0  0
  3  4  1  0  0  0  0
  4  5  2  0  0  0  0
  4  6  1  0  0  0  0
  6  7  1  0  0  0  0
  7  8  2  0  0  0  0
  8  9  1  0  0  0  0
  9 10  2  0  0  0  0
  6 10  1  0  0  0  0
 10 11  1  0  0  0  0
  8 12  1  0  0  0  0
 12 13  2  0  0  0  0
 13 14  1  0  0  0  0
 14 15  2  0  0  0  0
 15 16  1  0  0  0  0
 16 17  2  0  0  0  0
 12 17  1  0  0  0  0
 15 18  1  0  0  0  0
 18 19  2  0  0  0  0
 19 20  1  0  0  0  0
 20 21  2  0  0  0  0
 21 22  1  0  0  0  0
 22 23  1  0  0  0  0
 22 24  2  0  0  0  0
 18 24  1  0  0  0  0
M  END
> <ID>
CPD_5325

$$$$
CPD_5330
  Mrv1822 09091914012D          

 27 29  0  0  0  0            999 V2000
    3.4656   -0.4741    0.0000 C   0  0  0  0  0  0  0  0  0  0  0  0
    3.4656   -1.2991    0.0000 O   0  0  0  0  0  0  0  0  0  0  0  0
    2.7512   -1.7116    0.0000 C   0  0  0  0  0  0  0  0  0  0  0  0
    2.0367   -1.2991    0.0000 O   0  0  0  0  0  0  0  0  0  0  0  0
    2.7512   -2.5366    0.0000 C   0  0  0  0  0  0  0  0  0  0  0  0
    3.4186   -3.0215    0.0000 N   0  0  0  0  0  0  0  0  0  0  0  0
    3.1637   -3.8062    0.0000 O   0  0  0  0  0  0  0  0  0  0  0  0
    2.3387   -3.8062    0.0000 C   0  0  0  0  0  0  0  0  0  0  0  0
    2.0837   -3.0215    0.0000 C   0  0  0  0  0  0  0  0  0  0  0  0
    1.8538   -4.4736    0.0000 C   0  0  0  0  0  0  0  0  0  0  0  0
    2.1893   -5.2273    0.0000 C   0  0  0  0  0  0  0  0  0  0  0  0
    1.7044   -5.8947    0.0000 C   0  0  0  0  0  0  0  0  0  0  0  0
    0.8839   -5.8085    0.0000 C   0  0  0  0  0  0  0  0  0  0  0  0
    0.5484   -5.0548    0.0000 C   0  0  0  0  0  0  0  0  0  0  0  0
    1.0333   -4.3874    0.0000 C   0  0  0  0  0  0  0  0  0  0  0  0
   -0.2721   -4.9686    0.0000 C   0  0  0  0  0  0  0  0  0  0  0  0
   -0.7571   -5.6360    0.0000 C   0  0  0  0  0  0  0  0  0  0  0  0
   -0.4215   -6.3897    0.0000 O   0  0  0  0  0  0  0  0  0  0  0  0
   -0.9064   -7.0571    0.0000 C   0  0  0  0  0  0  0  0  0  0  0  0
   -1.5775   -5.5498    0.0000 N   0  0  0  0  0  0  0  0  0  0  0  0
   -1.9131   -4.7961    0.0000 C   0  0  0  0  0  0  0  0  0  0  0  0
   -2.7336   -4.7098    0.0000 O   0  0  0  0  0  0  0  0  0  0  0  0
   -3.2185   -5.3773    0.0000 C   0  0  0  0  0  0  0  0  0  0  0  0
   -1.4282   -4.1286    0.0000 C   0  0  0  0  0  0  0  0  0  0  0  0
   -1.7637   -3.3750    0.0000 O   0  0  0  0  0  0  0  0  0  0  0  0
   -1.2788   -2.7075    0.0000 C   0  0  0  0  0  0  0  0  0  0  0  0
   -0.6077   -4.2149    0.0000 C   0  0  0  0  0  0  0  0  0  0  0  0
  1  2  1  0  0  0  0
  2  3  1  0  0  0  0
  3  4  2  0  0  0  0
  3  5  1  0  0  0  0
  5  6  2  0  0  0  0
  6  7  1  0  0  0  0
  7  8  1  0  0  0  0
  8  9  2  0  0  0  0
  5  9  1  0  0  0  0
  8 10  1  0  0  0  0
 10 11  2  0  0  0  0
 11 12  1  0  0  0  0
 12 13  2  0  0  0  0
 13 14  1  0  0  0  0
 14 15  2  0  0  0  0
 10 15  1  0  0  0  0
 14 16  1  0  0  0  0
 16 17  2  0  0  0  0
 17 18  1  0  0  0  0
 18 19  1  0  0  0  0
 17 20  1  0  0  0  0
 20 21  2  0  0  0  0
 21 22  1  0  0  0  0
 22 23  1  0  0  0  0
 21 24  1  0  0  0  0
 24 25  1  0  0  0  0
 25 26  1  0  0  0  0
 24 27  2  0  0  0  0
 16 27  1  0  0  0  0
M  END
> <ID>
CPD_5330

$$$$
CPD_5335
  Mrv1822 09091914012D          

 28 30  0  0  0  0            999 V2000
   -2.1434   -1.2375    0.0000 C   0  0  0  0  0  0  0  0  0  0  0  0
   -1.4289   -1.6500    0.0000 N   0  0  0  0  0  0  0  0  0  0  0  0
   -1.4289   -2.4750    0.0000 C   0  0  0  0  0  0  0  0  0  0  0  0
   -0.7145   -2.8875    0.0000 C   0  0  0  0  0  0  0  0  0  0  0  0
   -0.7145   -3.7125    0.0000 C   0  0  0  0  0  0  0  0  0  0  0  0
   -1.4289   -4.1250    0.0000 N   0  0  0  0  0  0  0  0  0  0  0  0
   -2.1434   -3.7125    0.0000 C   0  0  0  0  0  0  0  0  0  0  0  0
   -2.1434   -2.8875    0.0000 C   0  0  0  0  0  0  0  0  0  0  0  0
   -1.4289   -4.9500    0.0000 C   0  0  0  0  0  0  0  0  0  0  0  0
   -0.7145   -5.3625    0.0000 C   0  0  0  0  0  0  0  0  0  0  0  0
    0.0000   -4.9500    0.0000 C   0  0  0  0  0  0  0  0  0  0  0  0
    0.7145   -4.5375    0.0000 N   0  0  0  0  0  0  0  0  0  0  0  0
   -0.7145   -6.1875    0.0000 C   0  0  0  0  0  0  0  0  0  0  0  0
   -1.4289   -6.6000    0.0000 C   0  0  0  0  0  0  0  0  0  0  0  0
   -2.1434   -6.1875    0.0000 C   0  0  0  0  0  0  0  0  0  0  0  0
   -2.1434   -5.3625    0.0000 C   0  0  0  0  0  0  0  0  0  0  0  0
   -0.0000   -6.6000    0.0000 C   0  0  0  0  0  0  0  0  0  0  0  0
    0.7145   -6.1875    0.0000 C   0  0  0  0  0  0  0  0  0  0  0  0
    0.7145   -5.3625    0.0000 O   0  0  0  0  0  0  0  0  0  0  0  0
    1.4289   -4.9500    0.0000 C   0  0  0  0  0  0  0  0  0  0  0  0
    1.4289   -6.6000    0.0000 N   0  0  0  0  0  0  0  0  0  0  0  0
    1.4289   -7.4250    0.0000 C   0  0  0  0  0  0  0  0  0  0  0  0
    2.1434   -7.8375    0.0000 O   0  0  0  0  0  0  0  0  0  0  0  0
    2.8579   -7.4250    0.0000 C   0  0  0  0  0  0  0  0  0  0  0  0
    0.7145   -7.8375    0.0000 C   0  0  0  0  0  0  0  0  0  0  0  0
    0.7145   -8.6625    0.0000 O   0  0  0  0  0  0  0  0  0  0  0  0
   -0.0000   -9.0750    0.0000 C   0  0  0  0  0  0  0  0  0  0  0  0
   -0.0000   -7.4250    0.0000 C   0  0  0  0  0  0  0  0  0  0  0  0
  1  2  1  0  0  0  0
  2  3  1  0  0  0  0
  3  4  1  0  0  0  0
  4  5  1  0  0  0  0
  5  6  1  0  0  0  0
  6  7  1  0  0  0  0
  7  8  1  0  0  0  0
  3  8  1  0  0  0  0
  6  9  1  0  0  0  0
  9 10  2  0  0  0  0
 10 11  1  0  0  0  0
 11 12  3  0  0  0  0
 10 13  1  0  0  0  0
 13 14  2  0  0  0  0
 14 15  1  0  0  0  0
 15 16  2  0  0  0  0
  9 16  1  0  0  0  0
 13 17  1  0  0  0  0
 17 18  2  0  0  0  0
 18 19  1  0  0  0  0
 19 20  1  0  0  0  0
 18 21  1  0  0  0  0
 21 22  2  0  0  0  0
 22 23  1  0  0  0  0
 23 24  1  0  0  0  0
 22 25  1  0  0  0  0
 25 26  1  0  0  0  0
 26 27  1  0  0  0  0
 25 28  2  0  0  0  0
 17 28  1  0  0  0  0
M  END
> <ID>
CPD_5335

$$$$
CPD_5340
  Mrv1822 09091914012D          

 20 21  0  0  0  0            999 V2000
    0.0000   -0.0000    0.0000 C   0  0  0  0  0  0  0  0  0  0  0  0
    0.7145   -0.4125    0.0000 O   0  0  0  0  0  0  0  0  0  0  0  0
    0.7145   -1.2375    0.0000 C   0  0  0  0  0  0  0  0  0  0  0  0
    1.3819   -1.7224    0.0000 N   0  0  0  0  0  0  0  0  0  0  0  0
    1.1270   -2.5070    0.0000 C   0  0  0  0  0  0  0  0  0  0  0  0
    0.3020   -2.5070    0.0000 N   0  0  0  0  0  0  0  0  0  0  0  0
    0.0470   -1.7224    0.0000 N   0  0  0  0  0  0  0  0  0  0  0  0
   -0.7376   -1.4675    0.0000 C   0  0  0  0  0  0  0  0  0  0  0  0
    1.6119   -3.1745    0.0000 C   0  0  0  0  0  0  0  0  0  0  0  0
    2.4324   -3.0882    0.0000 C   0  0  0  0  0  0  0  0  0  0  0  0
    2.7679   -2.3346    0.0000 O   0  0  0  0  0  0  0  0  0  0  0  0
    3.5884   -2.2483    0.0000 C   0  0  0  0  0  0  0  0  0  0  0  0
    2.9173   -3.7557    0.0000 N   0  0  0  0  0  0  0  0  0  0  0  0
    2.5817   -4.5094    0.0000 C   0  0  0  0  0  0  0  0  0  0  0  0
    3.0667   -5.1768    0.0000 O   0  0  0  0  0  0  0  0  0  0  0  0
    3.8871   -5.0906    0.0000 C   0  0  0  0  0  0  0  0  0  0  0  0
    1.7613   -4.5956    0.0000 C   0  0  0  0  0  0  0  0  0  0  0  0
    1.4257   -5.3493    0.0000 O   0  0  0  0  0  0  0  0  0  0  0  0
    0.6052   -5.4355    0.0000 C   0  0  0  0  0  0  0  0  0  0  0  0
    1.2763   -3.9282    0.0000 C   0  0  0  0  0  0  0  0  0  0  0  0
  1  2  1  0  0  0  0
  2  3  1  0  0  0  0
  3  4  2  0  0  0  0
  4  5  1  0  0  0  0
  5  6  2  0  0  0  0
  6  7  1  0  0  0  0
  3  7  1  0  0  0  0
  7  8  1  0  0  0  0
  5  9  1  0  0  0  0
  9 10  2  0  0  0  0
 10 11  1  0  0  0  0
 11 12  1  0  0  0  0
 10 13  1  0  0  0  0
 13 14  2  0  0  0  0
 14 15  1  0  0  0  0
 15 16  1  0  0  0  0
 14 17  1  0  0  0  0
 17 18  1  0  0  0  0
 18 19  1  0  0  0  0
 17 20  2  0  0  0  0
  9 20  1  0  0  0  0
M  END
> <ID>
CPD_5340

$$$$
CPD_5345
  Mrv1822 09091914012D          

 34 37  0  0  0  0            999 V2000
    0.7145    2.8875    0.0000 C   0  0  0  0  0  0  0  0  0  0  0  0
    0.7145    2.0625    0.0000 C   0  0  0  0  0  0  0  0  0  0  0  0
   -0.1105    2.0625    0.0000 C   0  0  0  0  0  0  0  0  0  0  0  0
    1.5395    2.0625    0.0000 C   0  0  0  0  0  0  0  0  0  0  0  0
    0.7145    1.2375    0.0000 N   0  0  0  0  0  0  0  0  0  0  0  0
    1.4289    0.8250    0.0000 C   0  0  0  0  0  0  0  0  0  0  0  0
    2.1434    1.2375    0.0000 O   0  0  0  0  0  0  0  0  0  0  0  0
    1.4289    0.0000    0.0000 C   0  0  0  0  0  0  0  0  0  0  0  0
    2.1434   -0.4125    0.0000 C   0  0  0  0  0  0  0  0  0  0  0  0
    2.8579    0.0000    0.0000 C   0  0  0  0  0  0  0  0  0  0  0  0
    3.5724   -0.4125    0.0000 C   0  0  0  0  0  0  0  0  0  0  0  0
    3.5724   -1.2375    0.0000 C   0  0  0  0  0  0  0  0  0  0  0  0
    2.8579   -1.6500    0.0000 C   0  0  0  0  0  0  0  0  0  0  0  0
    2.1434   -1.2375    0.0000 C   0  0  0  0  0  0  0  0  0  0  0  0
    1.4289   -1.6500    0.0000 C   0  0  0  0  0  0  0  0  0  0  0  0
    0.7145   -1.2375    0.0000 C   0  0  0  0  0  0  0  0  0  0  0  0
    0.7145   -0.4125    0.0000 C   0  0  0  0  0  0  0  0  0  0  0  0
    1.4289   -2.4750    0.0000 C   0  0  0  0  0  0  0  0  0  0  0  0
    2.1434   -2.8875    0.0000 C   0  0  0  0  0  0  0  0  0  0  0  0
    2.1434   -3.7125    0.0000 C   0  0  0  0  0  0  0  0  0  0  0  0
    1.4289   -4.1250    0.0000 C   0  0  0  0  0  0  0  0  0  0  0  0
    0.7145   -3.7125    0.0000 N   0  0  0  0  0  0  0  0  0  0  0  0
    0.7145   -2.8875    0.0000 N   0  0  0  0  0  0  0  0  0  0  0  0
    1.4289   -4.9500    0.0000 C   0  0  0  0  0  0  0  0  0  0  0  0
    2.1434   -5.3625    0.0000 C   0  0  0  0  0  0  0  0  0  0  0  0
    2.8579   -5.7750    0.0000 N   0  0  0  0  0  0  0  0  0  0  0  0
    0.7145   -5.3625    0.0000 C   0  0  0  0  0  0  0  0  0  0  0  0
    0.7145   -6.1875    0.0000 C   0  0  0  0  0  0  0  0  0  0  0  0
    1.4289   -6.6000    0.0000 Cl  0  0  0  0  0  0  0  0  0  0  0  0
    0.0000   -6.6000    0.0000 C   0  0  0  0  0  0  0  0  0  0  0  0
   -0.7145   -6.1875    0.0000 C   0  0  0  0  0  0  0  0  0  0  0  0
   -1.4289   -6.6000    0.0000 Cl  0  0  0  0  0  0  0  0  0  0  0  0
   -0.7145   -5.3625    0.0000 C   0  0  0  0  0  0  0  0  0  0  0  0
    0.0000   -4.9500    0.0000 C   0  0  0  0  0  0  0  0  0  0  0  0
  1  2  1  0  0  0  0
  2  3  1  0  0  0  0
  2  4  1  0  0  0  0
  2  5  1  0  0  0  0
  5  6  1  0  0  0  0
  6  7  2  0  0  0  0
  6  8  1  0  0  0  0
  8  9  2  0  0  0  0
  9 10  1  0  0  0  0
 10 11  2  0  0  0  0
 11 12  1  0  0  0  0
 12 13  2  0  0  0  0
 13 14  1  0  0  0  0
  9 14  1  0  0  0  0
 14 15  2  0  0  0  0
 15 16  1  0  0  0  0
 16 17  2  0  0  0  0
  8 17  1  0  0  0  0
 15 18  1  0  0  0  0
 18 19  2  0  0  0  0
 19 20  1  0  0  0  0
 20 21  2  0  0  0  0
 21 22  1  0  0  0  0
 22 23  2  0  0  0  0
 18 23  1  0  0  0  0
 21 24  1  0  0  0  0
 24 25  1  0  0  0  0
 25 26  3  0  0  0  0
 24 27  1  0  0  0  0
 27 28  2  0  0  0  0
 28 29  1  0  0  0  0
 28 30  1  0  0  0  0
 30 31  2  0  0  0  0
 31 32  1  0  0  0  0
 31 33  1  0  0  0  0
 33 34  2  0  0  0  0
 27 34  1  0  0  0  0
M  END
> <ID>
CPD_5345

$$$$
CPD_5350
  Mrv1822 09091914012D          

 35 38  0  0  0  0            999 V2000
    2.1434    3.7125    0.0000 C   0  0  0  0  0  0  0  0  0  0  0  0
    1.4289    3.3000    0.0000 O   0  0  0  0  0  0  0  0  0  0  0  0
    1.4289    2.4750    0.0000 C   0  0  0  0  0  0  0  0  0  0  0  0
    2.1434    2.0625    0.0000 C   0  0  0  0  0  0  0  0  0  0  0  0
    2.1434    1.2375    0.0000 C   0  0  0  0  0  0  0  0  0  0  0  0
    2.8579    0.8250    0.0000 O   0  0  0  0  0  0  0  0  0  0  0  0
    3.5724    1.2375    0.0000 C   0  0  0  0  0  0  0  0  0  0  0  0
    1.4289    0.8250    0.0000 C   0  0  0  0  0  0  0  0  0  0  0  0
    0.7145    1.2375    0.0000 C   0  0  0  0  0  0  0  0  0  0  0  0
    0.7145    2.0625    0.0000 C   0  0  0  0  0  0  0  0  0  0  0  0
   -0.0000    2.4750    0.0000 N   0  0  0  0  0  0  0  0  0  0  0  0
   -0.0000    3.3000    0.0000 C   0  0  0  0  0  0  0  0  0  0  0  0
    0.7145    3.7125    0.0000 O   0  0  0  0  0  0  0  0  0  0  0  0
   -0.7145    3.7125    0.0000 C   0  0  0  0  0  0  0  0  0  0  0  0
   -0.8007    4.5330    0.0000 C   0  0  0  0  0  0  0  0  0  0  0  0
   -1.6077    4.7045    0.0000 C   0  0  0  0  0  0  0  0  0  0  0  0
   -2.0202    3.9900    0.0000 C   0  0  0  0  0  0  0  0  0  0  0  0
   -1.4681    3.3769    0.0000 N   0  0  0  0  0  0  0  0  0  0  0  0
    1.4289    0.0000    0.0000 C   0  0  0  0  0  0  0  0  0  0  0  0
    2.1434   -0.4125    0.0000 C   0  0  0  0  0  0  0  0  0  0  0  0
    2.8579    0.0000    0.0000 C   0  0  0  0  0  0  0  0  0  0  0  0
    3.5724   -0.4125    0.0000 C   0  0  0  0  0  0  0  0  0  0  0  0
    3.5724   -1.2375    0.0000 C   0  0  0  0  0  0  0  0  0  0  0  0
    2.8579   -1.6500    0.0000 C   0  0  0  0  0  0  0  0  0  0  0  0
    2.1434   -1.2375    0.0000 C   0  0  0  0  0  0  0  0  0  0  0  0
    1.4289   -1.6500    0.0000 C   0  0  0  0  0  0  0  0  0  0  0  0
    0.7145   -1.2375    0.0000 C   0  0  0  0  0  0  0  0  0  0  0  0
    0.7145   -0.4125    0.0000 C   0  0  0  0  0  0  0  0  0  0  0  0
    1.4289   -2.4750    0.0000 C   0  0  0  0  0  0  0  0  0  0  0  0
    2.1434   -2.8875    0.0000 O   0  0  0  0  0  0  0  0  0  0  0  0
    0.7145   -2.8875    0.0000 N   0  0  0  0  0  0  0  0  0  0  0  0
    0.7145   -3.7125    0.0000 C   0  0  0  0  0  0  0  0  0  0  0  0
    0.7145   -4.5375    0.0000 C   0  0  0  0  0  0  0  0  0  0  0  0
   -0.1105   -3.7125    0.0000 C   0  0  0  0  0  0  0  0  0  0  0  0
    1.5395   -3.7125    0.0000 C   0  0  0  0  0  0  0  0  0  0  0  0
  1  2  1  0  0  0  0
  2  3  1  0  0  0  0
  3  4  2  0  0  0  0
  4  5  1  0  0  0  0
  5  6  1  0  0  0  0
  6  7  1  0  0  0  0
  5  8  2  0  0  0  0
  8  9  1  0  0  0  0
  9 10  2  0  0  0  0
  3 10  1  0  0  0  0
 10 11  1  0  0  0  0
 11 12  1  0  0  0  0
 12 13  2  0  0  0  0
 12 14  1  0  0  0  0
 14 15  1  0  0  0  0
 15 16  1  0  0  0  0
 16 17  1  0  0  0  0
 17 18  1  0  0  0  0
 14 18  1  0  0  0  0
  8 19  1  0  0  0  0
 19 20  2  0  0  0  0
 20 21  1  0  0  0  0
 21 22  2  0  0  0  0
 22 23  1  0  0  0  0
 23 24  2  0  0  0  0
 24 25  1  0  0  0  0
 20 25  1  0  0  0  0
 25 26  2  0  0  0  0
 26 27  1  0  0  0  0
 27 28  2  0  0  0  0
 19 28  1  0  0  0  0
 26 29  1  0  0  0  0
 29 30  2  0  0  0  0
 29 31  1  0  0  0  0
 31 32  1  0  0  0  0
 32 33  1  0  0  0  0
 32 34  1  0  0  0  0
 32 35  1  0  0  0  0
M  END
> <ID>
CPD_5350

$$$$
CPD_5355
  Mrv1822 09091914012D          

 34 38  0  0  1  0            999 V2000
   -6.7254   -3.4822    0.0000 C   0  0  0  0  0  0  0  0  0  0  0  0
   -6.3129   -2.7678    0.0000 C   0  0  0  0  0  0  0  0  0  0  0  0
   -5.4879   -2.7678    0.0000 O   0  0  0  0  0  0  0  0  0  0  0  0
   -5.0754   -2.0533    0.0000 C   0  0  0  0  0  0  0  0  0  0  0  0
   -5.4879   -1.3388    0.0000 O   0  0  0  0  0  0  0  0  0  0  0  0
   -4.2504   -2.0533    0.0000 C   0  0  0  0  0  0  0  0  0  0  0  0
   -3.7655   -2.7207    0.0000 C   0  0  0  0  0  0  0  0  0  0  0  0
   -4.0204   -3.5053    0.0000 N   0  0  0  0  0  0  0  0  0  0  0  0
   -2.9808   -2.4658    0.0000 C   0  0  0  0  0  0  0  0  0  0  0  0
   -2.9808   -1.6408    0.0000 C   0  0  0  0  0  0  0  0  0  0  0  0
   -3.7655   -1.3858    0.0000 O   0  0  0  0  0  0  0  0  0  0  0  0
   -2.2664   -1.2283    0.0000 C   0  0  0  0  0  0  0  0  0  0  0  0
   -1.5519   -1.6408    0.0000 C   0  0  0  0  0  0  0  0  0  0  0  0
   -1.5519   -2.4658    0.0000 C   0  0  0  0  0  0  0  0  0  0  0  0
   -2.2664   -2.8783    0.0000 C   0  0  0  0  0  0  0  0  0  0  0  0
   -0.8374   -1.2283    0.0000 C   0  0  0  0  0  0  0  0  0  0  0  0
   -0.1230   -1.6408    0.0000 C   0  0  0  0  0  0  0  0  0  0  0  0
    0.5915   -1.2283    0.0000 C   0  0  0  0  0  0  0  0  0  0  0  0
    0.5915   -0.4033    0.0000 C   0  0  0  0  0  0  0  0  0  0  0  0
   -0.1230    0.0092    0.0000 C   0  0  0  0  0  0  0  0  0  0  0  0
   -0.8374   -0.4033    0.0000 C   0  0  0  0  0  0  0  0  0  0  0  0
   -1.5519    0.0092    0.0000 O   0  0  0  0  0  0  0  0  0  0  0  0
    1.2365    0.1111    0.0000 C   0  0  1  0  0  0  0  0  0  0  0  0
    2.0408   -0.0725    0.0000 C   0  0  0  0  0  0  0  0  0  0  0  0
    2.3988   -0.8158    0.0000 N   0  0  0  0  0  0  0  0  0  0  0  0
    3.2238   -0.8158    0.0000 C   0  0  0  0  0  0  0  0  0  0  0  0
    2.0408   -1.5591    0.0000 C   0  0  0  0  0  0  0  0  0  0  0  0
    1.2365   -1.7427    0.0000 C   0  0  0  0  0  0  0  0  0  0  0  0
    1.0529    0.9154    0.0000 C   0  0  0  0  0  0  0  0  0  0  0  0
    0.2646    1.1586    0.0000 C   0  0  0  0  0  0  0  0  0  0  0  0
    0.0810    1.9629    0.0000 C   0  0  0  0  0  0  0  0  0  0  0  0
    0.6858    2.5240    0.0000 C   0  0  0  0  0  0  0  0  0  0  0  0
    1.4741    2.2809    0.0000 C   0  0  0  0  0  0  0  0  0  0  0  0
    1.6577    1.4766    0.0000 C   0  0  0  0  0  0  0  0  0  0  0  0
  1  2  1  0  0  0  0
  2  3  1  0  0  0  0
  3  4  1  0  0  0  0
  4  5  2  0  0  0  0
  4  6  1  0  0  0  0
  6  7  2  0  0  0  0
  7  8  1  0  0  0  0
  7  9  1  0  0  0  0
  9 10  2  0  0  0  0
 10 11  1  0  0  0  0
  6 11  1  0  0  0  0
 10 12  1  0  0  0  0
 12 13  2  0  0  0  0
 13 14  1  0  0  0  0
 14 15  2  0  0  0  0
  9 15  1  0  0  0  0
 13 16  1  0  0  0  0
 16 17  2  0  0  0  0
 17 18  1  0  0  0  0
 18 19  2  0  0  0  0
 19 20  1  0  0  0  0
 20 21  2  0  0  0  0
 16 21  1  0  0  0  0
 21 22  1  0  0  0  0
 23 19  1  0  0  0  0
 23 24  1  0  0  0  0
 24 25  1  0  0  0  0
 25 26  1  0  0  0  0
 25 27  1  0  0  0  0
 27 28  1  0  0  0  0
 18 28  1  0  0  0  0
 23 29  1  6  0  0  0
 29 30  2  0  0  0  0
 30 31  1  0  0  0  0
 31 32  2  0  0  0  0
 32 33  1  0  0  0  0
 33 34  2  0  0  0  0
 29 34  1  0  0  0  0
M  END
> <ID>
CPD_5355

$$$$
CPD_5360
  Mrv1822 09091914012D          

 31 34  0  0  0  0            999 V2000
   -3.1034   -2.1269    0.0000 C   0  0  0  0  0  0  0  0  0  0  0  0
   -2.6909   -1.4124    0.0000 C   0  0  0  0  0  0  0  0  0  0  0  0
   -1.8659   -1.4124    0.0000 O   0  0  0  0  0  0  0  0  0  0  0  0
   -1.4534   -0.6979    0.0000 C   0  0  0  0  0  0  0  0  0  0  0  0
   -1.8659    0.0165    0.0000 O   0  0  0  0  0  0  0  0  0  0  0  0
   -0.6284   -0.6979    0.0000 C   0  0  0  0  0  0  0  0  0  0  0  0
   -0.1435   -1.3654    0.0000 C   0  0  0  0  0  0  0  0  0  0  0  0
   -0.3984   -2.1500    0.0000 N   0  0  0  0  0  0  0  0  0  0  0  0
    0.6411   -1.1104    0.0000 C   0  0  0  0  0  0  0  0  0  0  0  0
    0.6411   -0.2854    0.0000 C   0  0  0  0  0  0  0  0  0  0  0  0
   -0.1435   -0.0305    0.0000 O   0  0  0  0  0  0  0  0  0  0  0  0
    1.3556    0.1271    0.0000 C   0  0  0  0  0  0  0  0  0  0  0  0
    2.0701   -0.2854    0.0000 C   0  0  0  0  0  0  0  0  0  0  0  0
    2.0701   -1.1104    0.0000 C   0  0  0  0  0  0  0  0  0  0  0  0
    1.3556   -1.5229    0.0000 C   0  0  0  0  0  0  0  0  0  0  0  0
    2.7845    0.1271    0.0000 C   0  0  0  0  0  0  0  0  0  0  0  0
    2.7845    0.9521    0.0000 C   0  0  0  0  0  0  0  0  0  0  0  0
    3.4990    1.3646    0.0000 C   0  0  0  0  0  0  0  0  0  0  0  0
    4.2135    0.9521    0.0000 C   0  0  0  0  0  0  0  0  0  0  0  0
    4.2135    0.1271    0.0000 C   0  0  0  0  0  0  0  0  0  0  0  0
    3.4990   -0.2854    0.0000 C   0  0  0  0  0  0  0  0  0  0  0  0
    3.4990   -1.1104    0.0000 C   0  0  0  0  0  0  0  0  0  0  0  0
    4.9279    1.3646    0.0000 N   0  0  0  0  0  0  0  0  0  0  0  0
    5.0142    2.1850    0.0000 C   0  0  0  0  0  0  0  0  0  0  0  0
    5.8211    2.3566    0.0000 C   0  0  0  0  0  0  0  0  0  0  0  0
    6.2336    1.6421    0.0000 C   0  0  0  0  0  0  0  0  0  0  0  0
    5.6816    1.0290    0.0000 C   0  0  0  0  0  0  0  0  0  0  0  0
    5.8531    0.2220    0.0000 O   0  0  0  0  0  0  0  0  0  0  0  0
    6.1567    3.1102    0.0000 C   0  0  0  0  0  0  0  0  0  0  0  0
    5.6718    3.7777    0.0000 O   0  0  0  0  0  0  0  0  0  0  0  0
    6.9772    3.1965    0.0000 O   0  0  0  0  0  0  0  0  0  0  0  0
  1  2  1  0  0  0  0
  2  3  1  0  0  0  0
  3  4  1  0  0  0  0
  4  5  2  0  0  0  0
  4  6  1  0  0  0  0
  6  7  2  0  0  0  0
  7  8  1  0  0  0  0
  7  9  1  0  0  0  0
  9 10  2  0  0  0  0
 10 11  1  0  0  0  0
  6 11  1  0  0  0  0
 10 12  1  0  0  0  0
 12 13  2  0  0  0  0
 13 14  1  0  0  0  0
 14 15  2  0  0  0  0
  9 15  1  0  0  0  0
 13 16  1  0  0  0  0
 16 17  2  0  0  0  0
 17 18  1  0  0  0  0
 18 19  2  0  0  0  0
 19 20  1  0  0  0  0
 20 21  2  0  0  0  0
 16 21  1  0  0  0  0
 21 22  1  0  0  0  0
 19 23  1  0  0  0  0
 23 24  1  0  0  0  0
 24 25  1  0  0  0  0
 25 26  1  0  0  0  0
 26 27  1  0  0  0  0
 23 27  1  0  0  0  0
 27 28  2  0  0  0  0
 25 29  1  0  0  0  0
 29 30  1  0  0  0  0
 29 31  2  0  0  0  0
M  END
> <ID>
CPD_5360

$$$$
CPD_5365
  Mrv1822 09091914012D          

 30 33  0  0  0  0            999 V2000
   -3.1034   -2.1269    0.0000 C   0  0  0  0  0  0  0  0  0  0  0  0
   -2.6909   -1.4124    0.0000 C   0  0  0  0  0  0  0  0  0  0  0  0
   -1.8659   -1.4124    0.0000 O   0  0  0  0  0  0  0  0  0  0  0  0
   -1.4534   -0.6979    0.0000 C   0  0  0  0  0  0  0  0  0  0  0  0
   -1.8659    0.0165    0.0000 O   0  0  0  0  0  0  0  0  0  0  0  0
   -0.6284   -0.6979    0.0000 C   0  0  0  0  0  0  0  0  0  0  0  0
   -0.1435   -1.3654    0.0000 C   0  0  0  0  0  0  0  0  0  0  0  0
   -0.3984   -2.1500    0.0000 N   0  0  0  0  0  0  0  0  0  0  0  0
    0.6411   -1.1104    0.0000 C   0  0  0  0  0  0  0  0  0  0  0  0
    0.6411   -0.2854    0.0000 C   0  0  0  0  0  0  0  0  0  0  0  0
   -0.1435   -0.0305    0.0000 O   0  0  0  0  0  0  0  0  0  0  0  0
    1.3556    0.1271    0.0000 C   0  0  0  0  0  0  0  0  0  0  0  0
    2.0701   -0.2854    0.0000 C   0  0  0  0  0  0  0  0  0  0  0  0
    2.0701   -1.1104    0.0000 C   0  0  0  0  0  0  0  0  0  0  0  0
    1.3556   -1.5229    0.0000 C   0  0  0  0  0  0  0  0  0  0  0  0
    2.7845    0.1271    0.0000 C   0  0  0  0  0  0  0  0  0  0  0  0
    2.7845    0.9521    0.0000 C   0  0  0  0  0  0  0  0  0  0  0  0
    3.4990    1.3646    0.0000 C   0  0  0  0  0  0  0  0  0  0  0  0
    3.4990    2.1896    0.0000 O   0  0  0  0  0  0  0  0  0  0  0  0
    4.2135    2.6021    0.0000 C   0  0  0  0  0  0  0  0  0  0  0  0
    4.2135    3.4271    0.0000 C   0  0  0  0  0  0  0  0  0  0  0  0
    4.9279    3.8396    0.0000 C   0  0  0  0  0  0  0  0  0  0  0  0
    5.6424    3.4271    0.0000 N   0  0  0  0  0  0  0  0  0  0  0  0
    5.6424    2.6021    0.0000 C   0  0  0  0  0  0  0  0  0  0  0  0
    4.9279    2.1896    0.0000 C   0  0  0  0  0  0  0  0  0  0  0  0
    4.2135    0.9521    0.0000 C   0  0  0  0  0  0  0  0  0  0  0  0
    4.2135    0.1271    0.0000 C   0  0  0  0  0  0  0  0  0  0  0  0
    3.4990   -0.2854    0.0000 C   0  0  0  0  0  0  0  0  0  0  0  0
    3.4990   -1.1104    0.0000 C   0  0  0  0  0  0  0  0  0  0  0  0
    3.4990   -1.9354    0.0000 N   0  0  0  0  0  0  0  0  0  0  0  0
  1  2  1  0  0  0  0
  2  3  1  0  0  0  0
  3  4  1  0  0  0  0
  4  5  2  0  0  0  0
  4  6  1  0  0  0  0
  6  7  2  0  0  0  0
  7  8  1  0  0  0  0
  7  9  1  0  0  0  0
  9 10  2  0  0  0  0
 10 11  1  0  0  0  0
  6 11  1  0  0  0  0
 10 12  1  0  0  0  0
 12 13  2  0  0  0  0
 13 14  1  0  0  0  0
 14 15  2  0  0  0  0
  9 15  1  0  0  0  0
 13 16  1  0  0  0  0
 16 17  2  0  0  0  0
 17 18  1  0  0  0  0
 18 19  1  0  0  0  0
 19 20  1  0  0  0  0
 20 21  1  0  0  0  0
 21 22  1  0  0  0  0
 22 23  1  0  0  0  0
 23 24  1  0  0  0  0
 24 25  1  0  0  0  0
 20 25  1  0  0  0  0
 18 26  2  0  0  0  0
 26 27  1  0  0  0  0
 27 28  2  0  0  0  0
 16 28  1  0  0  0  0
 28 29  1  0  0  0  0
 29 30  3  0  0  0  0
M  END
> <ID>
CPD_5365

$$$$
CPD_5370
  Mrv1822 09091914012D          

 20 22  0  0  0  0            999 V2000
   -0.7145   -0.4125    0.0000 N   0  0  0  0  0  0  0  0  0  0  0  0
   -0.7145   -1.2375    0.0000 C   0  0  0  0  0  0  0  0  0  0  0  0
    0.0000   -1.6500    0.0000 C   0  0  0  0  0  0  0  0  0  0  0  0
    0.0000   -2.4750    0.0000 C   0  0  0  0  0  0  0  0  0  0  0  0
   -0.7145   -2.8875    0.0000 C   0  0  0  0  0  0  0  0  0  0  0  0
   -1.4289   -2.4750    0.0000 C   0  0  0  0  0  0  0  0  0  0  0  0
   -1.4289   -1.6500    0.0000 C   0  0  0  0  0  0  0  0  0  0  0  0
   -2.1434   -1.2375    0.0000 O   0  0  0  0  0  0  0  0  0  0  0  0
    0.7145   -1.2375    0.0000 C   0  0  0  0  0  0  0  0  0  0  0  0
    0.7145   -0.4125    0.0000 C   0  0  0  0  0  0  0  0  0  0  0  0
    1.4289    0.0000    0.0000 N   0  0  0  0  0  0  0  0  0  0  0  0
    2.1434   -0.4125    0.0000 C   0  0  0  0  0  0  0  0  0  0  0  0
    2.8579    0.0000    0.0000 C   0  0  0  0  0  0  0  0  0  0  0  0
    3.5724   -0.4125    0.0000 C   0  0  0  0  0  0  0  0  0  0  0  0
    4.2868   -0.0000    0.0000 O   0  0  0  0  0  0  0  0  0  0  0  0
    3.5724   -1.2375    0.0000 N   0  0  0  0  0  0  0  0  0  0  0  0
    2.8579   -1.6500    0.0000 C   0  0  0  0  0  0  0  0  0  0  0  0
    2.8579   -2.4750    0.0000 O   0  0  0  0  0  0  0  0  0  0  0  0
    2.1434   -1.2375    0.0000 C   0  0  0  0  0  0  0  0  0  0  0  0
    1.4289   -1.6500    0.0000 C   0  0  0  0  0  0  0  0  0  0  0  0
  1  2  1  0  0  0  0
  2  3  2  0  0  0  0
  3  4  1  0  0  0  0
  4  5  2  0  0  0  0
  5  6  1  0  0  0  0
  6  7  2  0  0  0  0
  2  7  1  0  0  0  0
  7  8  1  0  0  0  0
  3  9  1  0  0  0  0
  9 10  2  0  0  0  0
 10 11  1  0  0  0  0
 11 12  2  0  0  0  0
 12 13  1  0  0  0  0
 13 14  1  0  0  0  0
 14 15  2  0  0  0  0
 14 16  1  0  0  0  0
 16 17  1  0  0  0  0
 17 18  2  0  0  0  0
 17 19  1  0  0  0  0
 12 19  1  0  0  0  0
 19 20  2  0  0  0  0
  9 20  1  0  0  0  0
M  END
> <ID>
CPD_5370

$$$$
CPD_5375
  Mrv1822 09091914012D          

 24 27  0  0  0  0            999 V2000
    0.0000    0.0000    0.0000 O   0  0  0  0  0  0  0  0  0  0  0  0
    0.7145   -0.4125    0.0000 C   0  0  0  0  0  0  0  0  0  0  0  0
    1.4289    0.0000    0.0000 C   0  0  0  0  0  0  0  0  0  0  0  0
    2.1434   -0.4125    0.0000 C   0  0  0  0  0  0  0  0  0  0  0  0
    2.8579    0.0000    0.0000 N   0  0  0  0  0  0  0  0  0  0  0  0
    3.5724   -0.4125    0.0000 C   0  0  0  0  0  0  0  0  0  0  0  0
    3.5724   -1.2375    0.0000 C   0  0  0  0  0  0  0  0  0  0  0  0
    2.8579   -1.6500    0.0000 C   0  0  0  0  0  0  0  0  0  0  0  0
    2.1434   -1.2375    0.0000 C   0  0  0  0  0  0  0  0  0  0  0  0
    1.4289   -1.6500    0.0000 C   0  0  0  0  0  0  0  0  0  0  0  0
    1.4289   -2.4750    0.0000 O   0  0  0  0  0  0  0  0  0  0  0  0
    0.7145   -1.2375    0.0000 N   0  0  0  0  0  0  0  0  0  0  0  0
    4.2868   -1.6500    0.0000 C   0  0  0  0  0  0  0  0  0  0  0  0
    5.0013   -1.2375    0.0000 C   0  0  0  0  0  0  0  0  0  0  0  0
    5.7158   -1.6500    0.0000 C   0  0  0  0  0  0  0  0  0  0  0  0
    5.7158   -2.4750    0.0000 C   0  0  0  0  0  0  0  0  0  0  0  0
    5.0013   -2.8875    0.0000 C   0  0  0  0  0  0  0  0  0  0  0  0
    4.2868   -2.4750    0.0000 C   0  0  0  0  0  0  0  0  0  0  0  0
    6.4302   -2.8875    0.0000 S   0  0  0  0  0  0  0  0  0  0  0  0
    6.0177   -3.6020    0.0000 O   0  0  0  0  0  0  0  0  0  0  0  0
    6.8427   -2.1730    0.0000 O   0  0  0  0  0  0  0  0  0  0  0  0
    7.1447   -3.3000    0.0000 C   0  0  0  0  0  0  0  0  0  0  0  0
    7.9697   -3.3000    0.0000 C   0  0  0  0  0  0  0  0  0  0  0  0
    7.5572   -4.0145    0.0000 C   0  0  0  0  0  0  0  0  0  0  0  0
  1  2  2  0  0  0  0
  2  3  1  0  0  0  0
  3  4  1  0  0  0  0
  4  5  2  0  0  0  0
  5  6  1  0  0  0  0
  6  7  2  0  0  0  0
  7  8  1  0  0  0  0
  8  9  2  0  0  0  0
  4  9  1  0  0  0  0
  9 10  1  0  0  0  0
 10 11  2  0  0  0  0
 10 12  1  0  0  0  0
  2 12  1  0  0  0  0
  7 13  1  0  0  0  0
 13 14  2  0  0  0  0
 14 15  1  0  0  0  0
 15 16  2  0  0  0  0
 16 17  1  0  0  0  0
 17 18  2  0  0  0  0
 13 18  1  0  0  0  0
 16 19  1  0  0  0  0
 19 20  2  0  0  0  0
 19 21  2  0  0  0  0
 19 22  1  0  0  0  0
 22 23  1  0  0  0  0
 23 24  1  0  0  0  0
 22 24  1  0  0  0  0
M  END
> <ID>
CPD_5375

$$$$
CPD_5380
  Mrv1822 09091914012D          

 21 23  0  0  0  0            999 V2000
    0.7145   -2.8875    0.0000 N   0  0  0  0  0  0  0  0  0  0  0  0
    0.0000   -2.4750    0.0000 C   0  0  0  0  0  0  0  0  0  0  0  0
   -0.7145   -2.8875    0.0000 C   0  0  0  0  0  0  0  0  0  0  0  0
   -0.7145   -3.7125    0.0000 Cl  0  0  0  0  0  0  0  0  0  0  0  0
   -1.4289   -2.4750    0.0000 C   0  0  0  0  0  0  0  0  0  0  0  0
   -1.4289   -1.6500    0.0000 C   0  0  0  0  0  0  0  0  0  0  0  0
   -2.1434   -1.2375    0.0000 F   0  0  0  0  0  0  0  0  0  0  0  0
   -0.7145   -1.2375    0.0000 C   0  0  0  0  0  0  0  0  0  0  0  0
    0.0000   -1.6500    0.0000 C   0  0  0  0  0  0  0  0  0  0  0  0
    0.7145   -1.2375    0.0000 C   0  0  0  0  0  0  0  0  0  0  0  0
    0.7145   -0.4125    0.0000 C   0  0  0  0  0  0  0  0  0  0  0  0
    1.4289    0.0000    0.0000 N   0  0  0  0  0  0  0  0  0  0  0  0
    2.1434   -0.4125    0.0000 C   0  0  0  0  0  0  0  0  0  0  0  0
    2.8579    0.0000    0.0000 C   0  0  0  0  0  0  0  0  0  0  0  0
    3.5724   -0.4125    0.0000 C   0  0  0  0  0  0  0  0  0  0  0  0
    4.2868   -0.0000    0.0000 O   0  0  0  0  0  0  0  0  0  0  0  0
    3.5724   -1.2375    0.0000 N   0  0  0  0  0  0  0  0  0  0  0  0
    2.8579   -1.6500    0.0000 C   0  0  0  0  0  0  0  0  0  0  0  0
    2.8579   -2.4750    0.0000 O   0  0  0  0  0  0  0  0  0  0  0  0
    2.1434   -1.2375    0.0000 C   0  0  0  0  0  0  0  0  0  0  0  0
    1.4289   -1.6500    0.0000 C   0  0  0  0  0  0  0  0  0  0  0  0
  1  2  1  0  0  0  0
  2  3  2  0  0  0  0
  3  4  1  0  0  0  0
  3  5  1  0  0  0  0
  5  6  2  0  0  0  0
  6  7  1  0  0  0  0
  6  8  1  0  0  0  0
  8  9  2  0  0  0  0
  2  9  1  0  0  0  0
  9 10  1  0  0  0  0
 10 11  2  0  0  0  0
 11 12  1  0  0  0  0
 12 13  2  0  0  0  0
 13 14  1  0  0  0  0
 14 15  1  0  0  0  0
 15 16  2  0  0  0  0
 15 17  1  0  0  0  0
 17 18  1  0  0  0  0
 18 19  2  0  0  0  0
 18 20  1  0  0  0  0
 13 20  1  0  0  0  0
 20 21  2  0  0  0  0
 10 21  1  0  0  0  0
M  END
> <ID>
CPD_5380

$$$$
CPD_5385
  Mrv1822 09091914012D          

 28 31  0  0  0  0            999 V2000
   -5.0013   -5.3625    0.0000 C   0  0  0  0  0  0  0  0  0  0  0  0
   -4.2868   -4.9500    0.0000 O   0  0  0  0  0  0  0  0  0  0  0  0
   -4.2868   -4.1250    0.0000 C   0  0  0  0  0  0  0  0  0  0  0  0
   -5.0013   -3.7125    0.0000 O   0  0  0  0  0  0  0  0  0  0  0  0
   -3.5724   -3.7125    0.0000 N   0  0  0  0  0  0  0  0  0  0  0  0
   -3.5724   -2.8875    0.0000 C   0  0  0  0  0  0  0  0  0  0  0  0
   -2.8579   -2.4750    0.0000 C   0  0  0  0  0  0  0  0  0  0  0  0
   -2.1434   -2.8875    0.0000 N   0  0  0  0  0  0  0  0  0  0  0  0
   -2.1434   -3.7125    0.0000 C   0  0  0  0  0  0  0  0  0  0  0  0
   -2.8579   -4.1250    0.0000 C   0  0  0  0  0  0  0  0  0  0  0  0
   -1.4289   -2.4750    0.0000 C   0  0  0  0  0  0  0  0  0  0  0  0
   -1.4289   -1.6500    0.0000 C   0  0  0  0  0  0  0  0  0  0  0  0
   -0.7145   -1.2375    0.0000 C   0  0  0  0  0  0  0  0  0  0  0  0
    0.0000   -1.6500    0.0000 C   0  0  0  0  0  0  0  0  0  0  0  0
    0.0000   -2.4750    0.0000 C   0  0  0  0  0  0  0  0  0  0  0  0
   -0.7145   -2.8875    0.0000 C   0  0  0  0  0  0  0  0  0  0  0  0
    0.7145   -1.2375    0.0000 C   0  0  0  0  0  0  0  0  0  0  0  0
    0.7145   -0.4125    0.0000 C   0  0  0  0  0  0  0  0  0  0  0  0
    1.4289    0.0000    0.0000 N   0  0  0  0  0  0  0  0  0  0  0  0
    2.1434   -0.4125    0.0000 C   0  0  0  0  0  0  0  0  0  0  0  0
    2.8579    0.0000    0.0000 C   0  0  0  0  0  0  0  0  0  0  0  0
    3.5724   -0.4125    0.0000 C   0  0  0  0  0  0  0  0  0  0  0  0
    4.2868   -0.0000    0.0000 O   0  0  0  0  0  0  0  0  0  0  0  0
    3.5724   -1.2375    0.0000 N   0  0  0  0  0  0  0  0  0  0  0  0
    2.8579   -1.6500    0.0000 C   0  0  0  0  0  0  0  0  0  0  0  0
    2.8579   -2.4750    0.0000 O   0  0  0  0  0  0  0  0  0  0  0  0
    2.1434   -1.2375    0.0000 C   0  0  0  0  0  0  0  0  0  0  0  0
    1.4289   -1.6500    0.0000 C   0  0  0  0  0  0  0  0  0  0  0  0
  1  2  1  0  0  0  0
  2  3  1  0  0  0  0
  3  4  2  0  0  0  0
  3  5  1  0  0  0  0
  5  6  1  0  0  0  0
  6  7  1  0  0  0  0
  7  8  1  0  0  0  0
  8  9  1  0  0  0  0
  9 10  1  0  0  0  0
  5 10  1  0  0  0  0
  8 11  1  0  0  0  0
 11 12  2  0  0  0  0
 12 13  1  0  0  0  0
 13 14  2  0  0  0  0
 14 15  1  0  0  0  0
 15 16  2  0  0  0  0
 11 16  1  0  0  0  0
 14 17  1  0  0  0  0
 17 18  2  0  0  0  0
 18 19  1  0  0  0  0
 19 20  2  0  0  0  0
 20 21  1  0  0  0  0
 21 22  1  0  0  0  0
 22 23  2  0  0  0  0
 22 24  1  0  0  0  0
 24 25  1  0  0  0  0
 25 26  2  0  0  0  0
 25 27  1  0  0  0  0
 20 27  1  0  0  0  0
 27 28  2  0  0  0  0
 17 28  1  0  0  0  0
M  END
> <ID>
CPD_5385

$$$$
CPD_5390
  Mrv1822 09091914012D          

 24 27  0  0  0  0            999 V2000
    0.0000    0.8250    0.0000 O   0  0  0  0  0  0  0  0  0  0  0  0
    0.0000   -0.0000    0.0000 C   0  0  0  0  0  0  0  0  0  0  0  0
   -0.7145   -0.4125    0.0000 C   0  0  0  0  0  0  0  0  0  0  0  0
   -0.7145   -1.2375    0.0000 C   0  0  0  0  0  0  0  0  0  0  0  0
    0.0000   -1.6500    0.0000 C   0  0  0  0  0  0  0  0  0  0  0  0
    0.7145   -1.2375    0.0000 C   0  0  0  0  0  0  0  0  0  0  0  0
    0.7145   -0.4125    0.0000 C   0  0  0  0  0  0  0  0  0  0  0  0
    1.4289   -0.0000    0.0000 C   0  0  0  0  0  0  0  0  0  0  0  0
    2.1434   -0.4125    0.0000 C   0  0  0  0  0  0  0  0  0  0  0  0
    2.1434   -1.2375    0.0000 C   0  0  0  0  0  0  0  0  0  0  0  0
    1.4289   -1.6500    0.0000 C   0  0  0  0  0  0  0  0  0  0  0  0
    1.4289    0.8250    0.0000 C   0  0  0  0  0  0  0  0  0  0  0  0
    0.7145    1.2375    0.0000 C   0  0  0  0  0  0  0  0  0  0  0  0
    0.7145    2.0625    0.0000 C   0  0  0  0  0  0  0  0  0  0  0  0
    1.4289    2.4750    0.0000 C   0  0  0  0  0  0  0  0  0  0  0  0
    2.1434    2.0625    0.0000 N   0  0  0  0  0  0  0  0  0  0  0  0
    2.1434    1.2375    0.0000 C   0  0  0  0  0  0  0  0  0  0  0  0
    2.8579    0.8250    0.0000 O   0  0  0  0  0  0  0  0  0  0  0  0
    3.5724    1.2375    0.0000 C   0  0  0  0  0  0  0  0  0  0  0  0
    3.5724    2.0625    0.0000 C   0  0  0  0  0  0  0  0  0  0  0  0
    4.2868    2.4750    0.0000 C   0  0  0  0  0  0  0  0  0  0  0  0
    5.0013    2.0625    0.0000 C   0  0  0  0  0  0  0  0  0  0  0  0
    5.0013    1.2375    0.0000 C   0  0  0  0  0  0  0  0  0  0  0  0
    4.2868    0.8250    0.0000 C   0  0  0  0  0  0  0  0  0  0  0  0
  1  2  2  0  0  0  0
  2  3  1  0  0  0  0
  3  4  1  0  0  0  0
  4  5  1  0  0  0  0
  5  6  1  0  0  0  0
  6  7  2  0  0  0  0
  2  7  1  0  0  0  0
  7  8  1  0  0  0  0
  8  9  2  0  0  0  0
  9 10  1  0  0  0  0
 10 11  2  0  0  0  0
  6 11  1  0  0  0  0
  8 12  1  0  0  0  0
 12 13  2  0  0  0  0
 13 14  1  0  0  0  0
 14 15  2  0  0  0  0
 15 16  1  0  0  0  0
 16 17  2  0  0  0  0
 12 17  1  0  0  0  0
 17 18  1  0  0  0  0
 18 19  1  0  0  0  0
 19 20  1  0  0  0  0
 20 21  1  0  0  0  0
 21 22  1  0  0  0  0
 22 23  1  0  0  0  0
 23 24  1  0  0  0  0
 19 24  1  0  0  0  0
M  END
> <ID>
CPD_5390

$$$$
CPD_5395
  Mrv1822 09091914012D          

 33 37  0  0  0  0            999 V2000
   -2.7512   -0.0616    0.0000 O   0  0  0  0  0  0  0  0  0  0  0  0
   -2.0367   -0.4741    0.0000 C   0  0  0  0  0  0  0  0  0  0  0  0
   -1.3222   -0.0616    0.0000 O   0  0  0  0  0  0  0  0  0  0  0  0
   -2.0367   -1.2991    0.0000 C   0  0  0  0  0  0  0  0  0  0  0  0
   -1.3222   -1.7116    0.0000 C   0  0  0  0  0  0  0  0  0  0  0  0
   -1.3222   -2.5366    0.0000 C   0  0  0  0  0  0  0  0  0  0  0  0
   -2.0367   -2.9491    0.0000 N   0  0  0  0  0  0  0  0  0  0  0  0
   -2.7512   -2.5366    0.0000 C   0  0  0  0  0  0  0  0  0  0  0  0
   -2.7512   -1.7116    0.0000 C   0  0  0  0  0  0  0  0  0  0  0  0
   -2.0367   -3.7741    0.0000 C   0  0  0  0  0  0  0  0  0  0  0  0
   -1.3693   -4.2590    0.0000 N   0  0  0  0  0  0  0  0  0  0  0  0
   -1.6242   -5.0437    0.0000 C   0  0  0  0  0  0  0  0  0  0  0  0
   -2.4492   -5.0437    0.0000 C   0  0  0  0  0  0  0  0  0  0  0  0
   -2.7041   -4.2590    0.0000 S   0  0  0  0  0  0  0  0  0  0  0  0
   -1.1393   -5.7111    0.0000 C   0  0  0  0  0  0  0  0  0  0  0  0
   -0.3188   -5.6249    0.0000 C   0  0  0  0  0  0  0  0  0  0  0  0
    0.1661   -6.2923    0.0000 C   0  0  0  0  0  0  0  0  0  0  0  0
   -0.1694   -7.0460    0.0000 C   0  0  0  0  0  0  0  0  0  0  0  0
   -0.9899   -7.1322    0.0000 C   0  0  0  0  0  0  0  0  0  0  0  0
   -1.4748   -6.4648    0.0000 C   0  0  0  0  0  0  0  0  0  0  0  0
    0.3155   -7.7134    0.0000 C   0  0  0  0  0  0  0  0  0  0  0  0
   -0.0201   -8.4671    0.0000 C   0  0  0  0  0  0  0  0  0  0  0  0
    0.4648   -9.1345    0.0000 C   0  0  0  0  0  0  0  0  0  0  0  0
    1.2853   -9.0483    0.0000 C   0  0  0  0  0  0  0  0  0  0  0  0
    1.6209   -8.2946    0.0000 N   0  0  0  0  0  0  0  0  0  0  0  0
    1.1360   -7.6272    0.0000 C   0  0  0  0  0  0  0  0  0  0  0  0
    1.4715   -6.8735    0.0000 O   0  0  0  0  0  0  0  0  0  0  0  0
    2.2920   -6.7873    0.0000 C   0  0  0  0  0  0  0  0  0  0  0  0
    2.6276   -6.0336    0.0000 C   0  0  0  0  0  0  0  0  0  0  0  0
    3.4480   -5.9473    0.0000 C   0  0  0  0  0  0  0  0  0  0  0  0
    3.9330   -6.6148    0.0000 C   0  0  0  0  0  0  0  0  0  0  0  0
    3.5974   -7.3685    0.0000 C   0  0  0  0  0  0  0  0  0  0  0  0
    2.7769   -7.4547    0.0000 C   0  0  0  0  0  0  0  0  0  0  0  0
  1  2  1  0  0  0  0
  2  3  2  0  0  0  0
  2  4  1  0  0  0  0
  4  5  1  0  0  0  0
  5  6  1  0  0  0  0
  6  7  1  0  0  0  0
  7  8  1  0  0  0  0
  8  9  1  0  0  0  0
  4  9  1  0  0  0  0
  7 10  1  0  0  0  0
 10 11  2  0  0  0  0
 11 12  1  0  0  0  0
 12 13  2  0  0  0  0
 13 14  1  0  0  0  0
 10 14  1  0  0  0  0
 12 15  1  0  0  0  0
 15 16  2  0  0  0  0
 16 17  1  0  0  0  0
 17 18  2  0  0  0  0
 18 19  1  0  0  0  0
 19 20  2  0  0  0  0
 15 20  1  0  0  0  0
 18 21  1  0  0  0  0
 21 22  2  0  0  0  0
 22 23  1  0  0  0  0
 23 24  2  0  0  0  0
 24 25  1  0  0  0  0
 25 26  2  0  0  0  0
 21 26  1  0  0  0  0
 26 27  1  0  0  0  0
 27 28  1  0  0  0  0
 28 29  1  0  0  0  0
 29 30  1  0  0  0  0
 30 31  1  0  0  0  0
 31 32  1  0  0  0  0
 32 33  1  0  0  0  0
 28 33  1  0  0  0  0
M  END
> <ID>
CPD_5395

$$$$
CPD_5400
  Mrv1822 09091914012D          

 30 33  0  0  0  0            999 V2000
    0.6288   -2.9346    0.0000 C   0  0  0  0  0  0  0  0  0  0  0  0
    0.8838   -2.1500    0.0000 C   0  0  0  0  0  0  0  0  0  0  0  0
    1.6684   -2.4049    0.0000 C   0  0  0  0  0  0  0  0  0  0  0  0
    0.0992   -1.8951    0.0000 C   0  0  0  0  0  0  0  0  0  0  0  0
    1.1387   -1.3654    0.0000 N   0  0  0  0  0  0  0  0  0  0  0  0
    0.6538   -0.6979    0.0000 N   0  0  0  0  0  0  0  0  0  0  0  0
    1.1387   -0.0305    0.0000 N   0  0  0  0  0  0  0  0  0  0  0  0
    1.9233   -0.2854    0.0000 C   0  0  0  0  0  0  0  0  0  0  0  0
    2.6378    0.1271    0.0000 C   0  0  0  0  0  0  0  0  0  0  0  0
    3.3523   -0.2854    0.0000 C   0  0  0  0  0  0  0  0  0  0  0  0
    3.3523   -1.1104    0.0000 C   0  0  0  0  0  0  0  0  0  0  0  0
    4.0668   -1.5229    0.0000 F   0  0  0  0  0  0  0  0  0  0  0  0
    2.6378   -1.5229    0.0000 C   0  0  0  0  0  0  0  0  0  0  0  0
    1.9233   -1.1104    0.0000 C   0  0  0  0  0  0  0  0  0  0  0  0
    4.0668    0.1271    0.0000 C   0  0  0  0  0  0  0  0  0  0  0  0
    4.0668    0.9521    0.0000 C   0  0  0  0  0  0  0  0  0  0  0  0
    3.3523    1.3646    0.0000 O   0  0  0  0  0  0  0  0  0  0  0  0
    3.3523    2.1896    0.0000 C   0  0  0  0  0  0  0  0  0  0  0  0
    4.0668    2.6021    0.0000 O   0  0  0  0  0  0  0  0  0  0  0  0
    2.6378    2.6021    0.0000 C   0  0  0  0  0  0  0  0  0  0  0  0
    1.9233    2.1896    0.0000 C   0  0  0  0  0  0  0  0  0  0  0  0
    1.2089    2.6021    0.0000 C   0  0  0  0  0  0  0  0  0  0  0  0
    1.2089    3.4271    0.0000 C   0  0  0  0  0  0  0  0  0  0  0  0
    1.9233    3.8396    0.0000 C   0  0  0  0  0  0  0  0  0  0  0  0
    2.6378    3.4271    0.0000 C   0  0  0  0  0  0  0  0  0  0  0  0
    3.3523    3.8396    0.0000 Br  0  0  0  0  0  0  0  0  0  0  0  0
    4.7812    1.3646    0.0000 C   0  0  0  0  0  0  0  0  0  0  0  0
    5.4957    0.9521    0.0000 C   0  0  0  0  0  0  0  0  0  0  0  0
    5.4957    0.1271    0.0000 C   0  0  0  0  0  0  0  0  0  0  0  0
    4.7812   -0.2854    0.0000 C   0  0  0  0  0  0  0  0  0  0  0  0
  1  2  1  0  0  0  0
  2  3  1  0  0  0  0
  2  4  1  0  0  0  0
  2  5  1  0  0  0  0
  5  6  1  0  0  0  0
  6  7  2  0  0  0  0
  7  8  1  0  0  0  0
  8  9  2  0  0  0  0
  9 10  1  0  0  0  0
 10 11  2  0  0  0  0
 11 12  1  0  0  0  0
 11 13  1  0  0  0  0
 13 14  2  0  0  0  0
  5 14  1  0  0  0  0
  8 14  1  0  0  0  0
 10 15  1  0  0  0  0
 15 16  2  0  0  0  0
 16 17  1  0  0  0  0
 17 18  1  0  0  0  0
 18 19  2  0  0  0  0
 18 20  1  0  0  0  0
 20 21  2  0  0  0  0
 21 22  1  0  0  0  0
 22 23  2  0  0  0  0
 23 24  1  0  0  0  0
 24 25  2  0  0  0  0
 20 25  1  0  0  0  0
 25 26  1  0  0  0  0
 16 27  1  0  0  0  0
 27 28  2  0  0  0  0
 28 29  1  0  0  0  0
 29 30  2  0  0  0  0
 15 30  1  0  0  0  0
M  END
> <ID>
CPD_5400

$$$$
CPD_5405
  Mrv1822 09091914012D          

 23 25  0  0  0  0            999 V2000
    0.6288   -2.9346    0.0000 C   0  0  0  0  0  0  0  0  0  0  0  0
    0.8838   -2.1500    0.0000 C   0  0  0  0  0  0  0  0  0  0  0  0
    1.6684   -2.4049    0.0000 C   0  0  0  0  0  0  0  0  0  0  0  0
    0.0992   -1.8951    0.0000 C   0  0  0  0  0  0  0  0  0  0  0  0
    1.1387   -1.3654    0.0000 N   0  0  0  0  0  0  0  0  0  0  0  0
    0.6538   -0.6979    0.0000 N   0  0  0  0  0  0  0  0  0  0  0  0
    1.1387   -0.0305    0.0000 N   0  0  0  0  0  0  0  0  0  0  0  0
    1.9233   -0.2854    0.0000 C   0  0  0  0  0  0  0  0  0  0  0  0
    2.6378    0.1271    0.0000 C   0  0  0  0  0  0  0  0  0  0  0  0
    3.3523   -0.2854    0.0000 C   0  0  0  0  0  0  0  0  0  0  0  0
    3.3523   -1.1104    0.0000 C   0  0  0  0  0  0  0  0  0  0  0  0
    4.0668   -1.5229    0.0000 F   0  0  0  0  0  0  0  0  0  0  0  0
    2.6378   -1.5229    0.0000 C   0  0  0  0  0  0  0  0  0  0  0  0
    1.9233   -1.1104    0.0000 C   0  0  0  0  0  0  0  0  0  0  0  0
    4.0668    0.1271    0.0000 C   0  0  0  0  0  0  0  0  0  0  0  0
    4.0668    0.9521    0.0000 C   0  0  0  0  0  0  0  0  0  0  0  0
    4.7812    1.3646    0.0000 C   0  0  0  0  0  0  0  0  0  0  0  0
    4.7812    2.1896    0.0000 Br  0  0  0  0  0  0  0  0  0  0  0  0
    5.4957    0.9521    0.0000 C   0  0  0  0  0  0  0  0  0  0  0  0
    5.4957    0.1271    0.0000 N   0  0  0  0  0  0  0  0  0  0  0  0
    4.7812   -0.2854    0.0000 C   0  0  0  0  0  0  0  0  0  0  0  0
    4.7812   -1.1104    0.0000 C   0  0  0  0  0  0  0  0  0  0  0  0
    4.7812   -1.9354    0.0000 N   0  0  0  0  0  0  0  0  0  0  0  0
  1  2  1  0  0  0  0
  2  3  1  0  0  0  0
  2  4  1  0  0  0  0
  2  5  1  0  0  0  0
  5  6  1  0  0  0  0
  6  7  2  0  0  0  0
  7  8  1  0  0  0  0
  8  9  2  0  0  0  0
  9 10  1  0  0  0  0
 10 11  2  0  0  0  0
 11 12  1  0  0  0  0
 11 13  1  0  0  0  0
 13 14  2  0  0  0  0
  5 14  1  0  0  0  0
  8 14  1  0  0  0  0
 10 15  1  0  0  0  0
 15 16  2  0  0  0  0
 16 17  1  0  0  0  0
 17 18  1  0  0  0  0
 17 19  2  0  0  0  0
 19 20  1  0  0  0  0
 20 21  2  0  0  0  0
 15 21  1  0  0  0  0
 21 22  1  0  0  0  0
 22 23  3  0  0  0  0
M  END
> <ID>
CPD_5405

$$$$
CPD_5410
  Mrv1822 09091914012D          

 26 29  0  0  0  0            999 V2000
    0.6288   -2.9346    0.0000 C   0  0  0  0  0  0  0  0  0  0  0  0
    0.8838   -2.1500    0.0000 C   0  0  0  0  0  0  0  0  0  0  0  0
    1.6684   -2.4049    0.0000 C   0  0  0  0  0  0  0  0  0  0  0  0
    0.0992   -1.8951    0.0000 C   0  0  0  0  0  0  0  0  0  0  0  0
    1.1387   -1.3654    0.0000 N   0  0  0  0  0  0  0  0  0  0  0  0
    0.6538   -0.6979    0.0000 N   0  0  0  0  0  0  0  0  0  0  0  0
    1.1387   -0.0305    0.0000 N   0  0  0  0  0  0  0  0  0  0  0  0
    1.9233   -0.2854    0.0000 C   0  0  0  0  0  0  0  0  0  0  0  0
    2.6378    0.1271    0.0000 C   0  0  0  0  0  0  0  0  0  0  0  0
    3.3523   -0.2854    0.0000 C   0  0  0  0  0  0  0  0  0  0  0  0
    3.3523   -1.1104    0.0000 C   0  0  0  0  0  0  0  0  0  0  0  0
    4.0668   -1.5229    0.0000 F   0  0  0  0  0  0  0  0  0  0  0  0
    2.6378   -1.5229    0.0000 C   0  0  0  0  0  0  0  0  0  0  0  0
    1.9233   -1.1104    0.0000 C   0  0  0  0  0  0  0  0  0  0  0  0
    4.0668    0.1271    0.0000 C   0  0  0  0  0  0  0  0  0  0  0  0
    4.0668    0.9521    0.0000 C   0  0  0  0  0  0  0  0  0  0  0  0
    3.3523    1.3646    0.0000 O   0  0  0  0  0  0  0  0  0  0  0  0
    2.6378    0.9521    0.0000 C   0  0  0  0  0  0  0  0  0  0  0  0
    1.9233    1.3646    0.0000 C   0  0  0  0  0  0  0  0  0  0  0  0
    1.0983    1.3646    0.0000 C   0  0  0  0  0  0  0  0  0  0  0  0
    1.5108    2.0790    0.0000 C   0  0  0  0  0  0  0  0  0  0  0  0
    4.7812    1.3646    0.0000 C   0  0  0  0  0  0  0  0  0  0  0  0
    5.4957    0.9521    0.0000 C   0  0  0  0  0  0  0  0  0  0  0  0
    5.4957    0.1271    0.0000 C   0  0  0  0  0  0  0  0  0  0  0  0
    6.2102   -0.2854    0.0000 F   0  0  0  0  0  0  0  0  0  0  0  0
    4.7812   -0.2854    0.0000 C   0  0  0  0  0  0  0  0  0  0  0  0
  1  2  1  0  0  0  0
  2  3  1  0  0  0  0
  2  4  1  0  0  0  0
  2  5  1  0  0  0  0
  5  6  1  0  0  0  0
  6  7  2  0  0  0  0
  7  8  1  0  0  0  0
  8  9  2  0  0  0  0
  9 10  1  0  0  0  0
 10 11  2  0  0  0  0
 11 12  1  0  0  0  0
 11 13  1  0  0  0  0
 13 14  2  0  0  0  0
  5 14  1  0  0  0  0
  8 14  1  0  0  0  0
 10 15  1  0  0  0  0
 15 16  2  0  0  0  0
 16 17  1  0  0  0  0
 17 18  1  0  0  0  0
 18 19  1  0  0  0  0
 19 20  1  0  0  0  0
 20 21  1  0  0  0  0
 19 21  1  0  0  0  0
 16 22  1  0  0  0  0
 22 23  2  0  0  0  0
 23 24  1  0  0  0  0
 24 25  1  0  0  0  0
 24 26  2  0  0  0  0
 15 26  1  0  0  0  0
M  END
> <ID>
CPD_5410

$$$$
CPD_5415
  Mrv1822 09091914012D          

 21 24  0  0  0  0            999 V2000
    2.1434   -2.8875    0.0000 C   0  0  0  0  0  0  0  0  0  0  0  0
    1.4289   -2.4750    0.0000 C   0  0  0  0  0  0  0  0  0  0  0  0
    0.7145   -2.8875    0.0000 C   0  0  0  0  0  0  0  0  0  0  0  0
    0.0000   -2.4750    0.0000 N   0  0  0  0  0  0  0  0  0  0  0  0
   -0.7846   -2.7299    0.0000 C   0  0  0  0  0  0  0  0  0  0  0  0
   -1.2695   -2.0625    0.0000 C   0  0  0  0  0  0  0  0  0  0  0  0
   -0.7846   -1.3951    0.0000 N   0  0  0  0  0  0  0  0  0  0  0  0
    0.0000   -1.6500    0.0000 C   0  0  0  0  0  0  0  0  0  0  0  0
    0.7145   -1.2375    0.0000 C   0  0  0  0  0  0  0  0  0  0  0  0
    1.4289   -1.6500    0.0000 C   0  0  0  0  0  0  0  0  0  0  0  0
    0.7145   -0.4125    0.0000 C   0  0  0  0  0  0  0  0  0  0  0  0
    0.0000    0.0000    0.0000 C   0  0  0  0  0  0  0  0  0  0  0  0
   -0.7846   -0.2549    0.0000 O   0  0  0  0  0  0  0  0  0  0  0  0
   -1.2695    0.4125    0.0000 C   0  0  0  0  0  0  0  0  0  0  0  0
   -0.7846    1.0799    0.0000 C   0  0  0  0  0  0  0  0  0  0  0  0
    0.0000    0.8250    0.0000 C   0  0  0  0  0  0  0  0  0  0  0  0
    0.7145    1.2375    0.0000 C   0  0  0  0  0  0  0  0  0  0  0  0
    1.4289    0.8250    0.0000 C   0  0  0  0  0  0  0  0  0  0  0  0
    2.1434    1.2375    0.0000 C   0  0  0  0  0  0  0  0  0  0  0  0
    2.1434    2.0625    0.0000 O   0  0  0  0  0  0  0  0  0  0  0  0
    1.4289    0.0000    0.0000 C   0  0  0  0  0  0  0  0  0  0  0  0
  1  2  1  0  0  0  0
  2  3  2  0  0  0  0
  3  4  1  0  0  0  0
  4  5  1  0  0  0  0
  5  6  2  0  0  0  0
  6  7  1  0  0  0  0
  7  8  2  0  0  0  0
  4  8  1  0  0  0  0
  8  9  1  0  0  0  0
  9 10  2  0  0  0  0
  2 10  1  0  0  0  0
  9 11  1  0  0  0  0
 11 12  2  0  0  0  0
 12 13  1  0  0  0  0
 13 14  1  0  0  0  0
 14 15  1  0  0  0  0
 15 16  1  0  0  0  0
 12 16  1  0  0  0  0
 16 17  2  0  0  0  0
 17 18  1  0  0  0  0
 18 19  1  0  0  0  0
 19 20  1  0  0  0  0
 18 21  2  0  0  0  0
 11 21  1  0  0  0  0
M  END
> <ID>
CPD_5415

$$$$
CPD_5420
  Mrv1822 09091914012D          

 23 26  0  0  0  0            999 V2000
   -0.7676    3.6020    0.0000 C   0  0  0  0  0  0  0  0  0  0  0  0
    0.0574    3.6020    0.0000 O   0  0  0  0  0  0  0  0  0  0  0  0
    0.4699    2.8875    0.0000 C   0  0  0  0  0  0  0  0  0  0  0  0
    0.0574    2.1730    0.0000 O   0  0  0  0  0  0  0  0  0  0  0  0
    1.2949    2.8875    0.0000 C   0  0  0  0  0  0  0  0  0  0  0  0
    1.7798    2.2201    0.0000 C   0  0  0  0  0  0  0  0  0  0  0  0
    2.5645    2.4750    0.0000 C   0  0  0  0  0  0  0  0  0  0  0  0
    2.5645    3.3000    0.0000 C   0  0  0  0  0  0  0  0  0  0  0  0
    1.7798    3.5549    0.0000 N   0  0  0  0  0  0  0  0  0  0  0  0
    3.2789    3.7125    0.0000 N   0  0  0  0  0  0  0  0  0  0  0  0
    3.9934    3.3000    0.0000 C   0  0  0  0  0  0  0  0  0  0  0  0
    3.9934    2.4750    0.0000 C   0  0  0  0  0  0  0  0  0  0  0  0
    3.2789    2.0625    0.0000 C   0  0  0  0  0  0  0  0  0  0  0  0
    3.2789    1.2375    0.0000 C   0  0  0  0  0  0  0  0  0  0  0  0
    3.9934    0.8250    0.0000 C   0  0  0  0  0  0  0  0  0  0  0  0
    3.9934    0.0000    0.0000 C   0  0  0  0  0  0  0  0  0  0  0  0
    4.7079   -0.4125    0.0000 C   0  0  0  0  0  0  0  0  0  0  0  0
    3.2789   -0.4125    0.0000 C   0  0  0  0  0  0  0  0  0  0  0  0
    2.5645    0.0000    0.0000 N   0  0  0  0  0  0  0  0  0  0  0  0
    1.7798   -0.2549    0.0000 C   0  0  0  0  0  0  0  0  0  0  0  0
    1.2949    0.4125    0.0000 C   0  0  0  0  0  0  0  0  0  0  0  0
    1.7798    1.0799    0.0000 N   0  0  0  0  0  0  0  0  0  0  0  0
    2.5645    0.8250    0.0000 C   0  0  0  0  0  0  0  0  0  0  0  0
  1  2  1  0  0  0  0
  2  3  1  0  0  0  0
  3  4  2  0  0  0  0
  3  5  1  0  0  0  0
  5  6  2  0  0  0  0
  6  7  1  0  0  0  0
  7  8  2  0  0  0  0
  8  9  1  0  0  0  0
  5  9  1  0  0  0  0
  8 10  1  0  0  0  0
 10 11  2  0  0  0  0
 11 12  1  0  0  0  0
 12 13  2  0  0  0  0
  7 13  1  0  0  0  0
 13 14  1  0  0  0  0
 14 15  2  0  0  0  0
 15 16  1  0  0  0  0
 16 17  1  0  0  0  0
 16 18  2  0  0  0  0
 18 19  1  0  0  0  0
 19 20  1  0  0  0  0
 20 21  2  0  0  0  0
 21 22  1  0  0  0  0
 22 23  2  0  0  0  0
 14 23  1  0  0  0  0
 19 23  1  0  0  0  0
M  END
> <ID>
CPD_5420

$$$$
CPD_5425
  Mrv1822 09091914012D          

 20 22  0  0  0  0            999 V2000
    2.5645    4.9500    0.0000 C   0  0  0  0  0  0  0  0  0  0  0  0
    3.2789    4.5375    0.0000 O   0  0  0  0  0  0  0  0  0  0  0  0
    3.2789    3.7125    0.0000 C   0  0  0  0  0  0  0  0  0  0  0  0
    3.9934    3.3000    0.0000 C   0  0  0  0  0  0  0  0  0  0  0  0
    4.7079    3.7125    0.0000 C   0  0  0  0  0  0  0  0  0  0  0  0
    5.4223    3.3000    0.0000 O   0  0  0  0  0  0  0  0  0  0  0  0
    3.9934    2.4750    0.0000 C   0  0  0  0  0  0  0  0  0  0  0  0
    3.2789    2.0625    0.0000 C   0  0  0  0  0  0  0  0  0  0  0  0
    2.5645    2.4750    0.0000 C   0  0  0  0  0  0  0  0  0  0  0  0
    2.5645    3.3000    0.0000 N   0  0  0  0  0  0  0  0  0  0  0  0
    3.2789    1.2375    0.0000 C   0  0  0  0  0  0  0  0  0  0  0  0
    3.9934    0.8250    0.0000 C   0  0  0  0  0  0  0  0  0  0  0  0
    3.9934    0.0000    0.0000 C   0  0  0  0  0  0  0  0  0  0  0  0
    4.7079   -0.4125    0.0000 C   0  0  0  0  0  0  0  0  0  0  0  0
    3.2789   -0.4125    0.0000 C   0  0  0  0  0  0  0  0  0  0  0  0
    2.5645    0.0000    0.0000 N   0  0  0  0  0  0  0  0  0  0  0  0
    1.7798   -0.2549    0.0000 C   0  0  0  0  0  0  0  0  0  0  0  0
    1.2949    0.4125    0.0000 C   0  0  0  0  0  0  0  0  0  0  0  0
    1.7798    1.0799    0.0000 N   0  0  0  0  0  0  0  0  0  0  0  0
    2.5645    0.8250    0.0000 C   0  0  0  0  0  0  0  0  0  0  0  0
  1  2  1  0  0  0  0
  2  3  1  0  0  0  0
  3  4  2  0  0  0  0
  4  5  1  0  0  0  0
  5  6  1  0  0  0  0
  4  7  1  0  0  0  0
  7  8  2  0  0  0  0
  8  9  1  0  0  0  0
  9 10  2  0  0  0  0
  3 10  1  0  0  0  0
  8 11  1  0  0  0  0
 11 12  2  0  0  0  0
 12 13  1  0  0  0  0
 13 14  1  0  0  0  0
 13 15  2  0  0  0  0
 15 16  1  0  0  0  0
 16 17  1  0  0  0  0
 17 18  2  0  0  0  0
 18 19  1  0  0  0  0
 19 20  2  0  0  0  0
 11 20  1  0  0  0  0
 16 20  1  0  0  0  0
M  END
> <ID>
CPD_5425

$$$$
CPD_5430
  Mrv1822 09091914012D          

 23 25  0  0  0  0            999 V2000
   -4.2868   -1.6500    0.0000 C   0  0  0  0  0  0  0  0  0  0  0  0
   -3.5724   -1.2375    0.0000 N   0  0  0  0  0  0  0  0  0  0  0  0
   -2.8579   -1.6500    0.0000 C   0  0  0  0  0  0  0  0  0  0  0  0
   -2.1434   -1.2375    0.0000 C   0  0  0  0  0  0  0  0  0  0  0  0
   -2.1434   -0.4125    0.0000 C   0  0  0  0  0  0  0  0  0  0  0  0
   -2.1434    0.4125    0.0000 N   0  0  0  0  0  0  0  0  0  0  0  0
   -1.4289   -1.6500    0.0000 C   0  0  0  0  0  0  0  0  0  0  0  0
   -1.4289   -2.4750    0.0000 C   0  0  0  0  0  0  0  0  0  0  0  0
   -2.1434   -2.8875    0.0000 C   0  0  0  0  0  0  0  0  0  0  0  0
   -2.8579   -2.4750    0.0000 C   0  0  0  0  0  0  0  0  0  0  0  0
   -0.7145   -1.2375    0.0000 C   0  0  0  0  0  0  0  0  0  0  0  0
    0.0000   -1.6500    0.0000 C   0  0  0  0  0  0  0  0  0  0  0  0
    0.7145   -1.2375    0.0000 C   0  0  0  0  0  0  0  0  0  0  0  0
    0.7145   -0.4125    0.0000 C   0  0  0  0  0  0  0  0  0  0  0  0
    1.4289   -0.0000    0.0000 N   0  0  0  0  0  0  0  0  0  0  0  0
    2.1434   -0.4125    0.0000 C   0  0  0  0  0  0  0  0  0  0  0  0
    2.8579   -0.0000    0.0000 O   0  0  0  0  0  0  0  0  0  0  0  0
    2.1434   -1.2375    0.0000 C   0  0  0  0  0  0  0  0  0  0  0  0
    1.4289   -1.6500    0.0000 C   0  0  0  0  0  0  0  0  0  0  0  0
    1.8163   -2.3784    0.0000 C   0  0  0  0  0  0  0  0  0  0  0  0
    1.0416   -2.3784    0.0000 C   0  0  0  0  0  0  0  0  0  0  0  0
    0.0000   -0.0000    0.0000 C   0  0  0  0  0  0  0  0  0  0  0  0
   -0.7145   -0.4125    0.0000 C   0  0  0  0  0  0  0  0  0  0  0  0
  1  2  1  0  0  0  0
  2  3  1  0  0  0  0
  3  4  2  0  0  0  0
  4  5  1  0  0  0  0
  5  6  3  0  0  0  0
  4  7  1  0  0  0  0
  7  8  2  0  0  0  0
  8  9  1  0  0  0  0
  9 10  2  0  0  0  0
  3 10  1  0  0  0  0
  7 11  1  0  0  0  0
 11 12  2  0  0  0  0
 12 13  1  0  0  0  0
 13 14  2  0  0  0  0
 14 15  1  0  0  0  0
 15 16  1  0  0  0  0
 16 17  2  0  0  0  0
 16 18  1  0  0  0  0
 18 19  1  0  0  0  0
 13 19  1  0  0  0  0
 19 20  1  0  0  0  0
 19 21  1  0  0  0  0
 14 22  1  0  0  0  0
 22 23  2  0  0  0  0
 11 23  1  0  0  0  0
M  END
> <ID>
CPD_5430

$$$$
CPD_5435
  Mrv1822 09091914012D          

 24 26  0  0  0  0            999 V2000
    0.7145   -3.7125    0.0000 C   0  0  0  0  0  0  0  0  0  0  0  0
    1.4289   -4.1250    0.0000 N   0  0  0  0  0  0  0  0  0  0  0  0
    1.4289   -4.9500    0.0000 C   0  0  0  0  0  0  0  0  0  0  0  0
    2.1434   -5.3625    0.0000 C   0  0  0  0  0  0  0  0  0  0  0  0
    2.8579   -4.9500    0.0000 C   0  0  0  0  0  0  0  0  0  0  0  0
    3.5724   -4.5375    0.0000 N   0  0  0  0  0  0  0  0  0  0  0  0
    2.1434   -6.1875    0.0000 C   0  0  0  0  0  0  0  0  0  0  0  0
    1.4289   -6.6000    0.0000 C   0  0  0  0  0  0  0  0  0  0  0  0
    0.7145   -6.1875    0.0000 C   0  0  0  0  0  0  0  0  0  0  0  0
    0.7145   -5.3625    0.0000 C   0  0  0  0  0  0  0  0  0  0  0  0
    2.8579   -6.6000    0.0000 C   0  0  0  0  0  0  0  0  0  0  0  0
    3.5724   -6.1875    0.0000 C   0  0  0  0  0  0  0  0  0  0  0  0
    4.2868   -6.6000    0.0000 N   0  0  0  0  0  0  0  0  0  0  0  0
    4.2868   -7.4250    0.0000 C   0  0  0  0  0  0  0  0  0  0  0  0
    5.0013   -7.8375    0.0000 N   0  0  0  0  0  0  0  0  0  0  0  0
    5.7158   -7.4250    0.0000 C   0  0  0  0  0  0  0  0  0  0  0  0
    6.4302   -7.8375    0.0000 C   0  0  0  0  0  0  0  0  0  0  0  0
    7.1447   -7.4250    0.0000 C   0  0  0  0  0  0  0  0  0  0  0  0
    7.8592   -7.8375    0.0000 C   0  0  0  0  0  0  0  0  0  0  0  0
    7.8592   -8.6625    0.0000 C   0  0  0  0  0  0  0  0  0  0  0  0
    7.1447   -9.0750    0.0000 C   0  0  0  0  0  0  0  0  0  0  0  0
    6.4302   -8.6625    0.0000 C   0  0  0  0  0  0  0  0  0  0  0  0
    3.5724   -7.8375    0.0000 N   0  0  0  0  0  0  0  0  0  0  0  0
    2.8579   -7.4250    0.0000 C   0  0  0  0  0  0  0  0  0  0  0  0
  1  2  1  0  0  0  0
  2  3  1  0  0  0  0
  3  4  2  0  0  0  0
  4  5  1  0  0  0  0
  5  6  3  0  0  0  0
  4  7  1  0  0  0  0
  7  8  2  0  0  0  0
  8  9  1  0  0  0  0
  9 10  2  0  0  0  0
  3 10  1  0  0  0  0
  7 11  1  0  0  0  0
 11 12  2  0  0  0  0
 12 13  1  0  0  0  0
 13 14  2  0  0  0  0
 14 15  1  0  0  0  0
 15 16  1  0  0  0  0
 16 17  1  0  0  0  0
 17 18  2  0  0  0  0
 18 19  1  0  0  0  0
 19 20  2  0  0  0  0
 20 21  1  0  0  0  0
 21 22  2  0  0  0  0
 17 22  1  0  0  0  0
 14 23  1  0  0  0  0
 23 24  2  0  0  0  0
 11 24  1  0  0  0  0
M  END
> <ID>
CPD_5435

$$$$
CPD_5440
  Mrv1822 09091914012D          

 35 38  0  0  0  0            999 V2000
   -2.1434   -1.2375    0.0000 C   0  0  0  0  0  0  0  0  0  0  0  0
   -1.4289   -1.6500    0.0000 N   0  0  0  0  0  0  0  0  0  0  0  0
   -1.4289   -2.4750    0.0000 C   0  0  0  0  0  0  0  0  0  0  0  0
   -0.7145   -1.2375    0.0000 C   0  0  0  0  0  0  0  0  0  0  0  0
    0.0000   -1.6500    0.0000 N   0  0  0  0  0  0  0  0  0  0  0  0
    0.7145   -1.2375    0.0000 C   0  0  0  0  0  0  0  0  0  0  0  0
    0.7145   -0.4125    0.0000 C   0  0  0  0  0  0  0  0  0  0  0  0
    1.4289   -0.0000    0.0000 C   0  0  0  0  0  0  0  0  0  0  0  0
    2.1434   -0.4125    0.0000 C   0  0  0  0  0  0  0  0  0  0  0  0
    2.1434   -1.2375    0.0000 C   0  0  0  0  0  0  0  0  0  0  0  0
    1.4289   -1.6500    0.0000 N   0  0  0  0  0  0  0  0  0  0  0  0
    2.8579   -0.0000    0.0000 C   0  0  0  0  0  0  0  0  0  0  0  0
    2.8579    0.8250    0.0000 C   0  0  0  0  0  0  0  0  0  0  0  0
    3.5724    1.2375    0.0000 C   0  0  0  0  0  0  0  0  0  0  0  0
    4.2868    0.8250    0.0000 C   0  0  0  0  0  0  0  0  0  0  0  0
    4.2868   -0.0000    0.0000 C   0  0  0  0  0  0  0  0  0  0  0  0
    3.5724   -0.4125    0.0000 C   0  0  0  0  0  0  0  0  0  0  0  0
    5.0013   -0.4125    0.0000 C   0  0  0  0  0  0  0  0  0  0  0  0
    4.5888   -1.1270    0.0000 C   0  0  0  0  0  0  0  0  0  0  0  0
    5.4138    0.3020    0.0000 C   0  0  0  0  0  0  0  0  0  0  0  0
    5.7158   -0.8250    0.0000 N   0  0  0  0  0  0  0  0  0  0  0  0
    6.4302   -0.4125    0.0000 C   0  0  0  0  0  0  0  0  0  0  0  0
    6.4302    0.4125    0.0000 O   0  0  0  0  0  0  0  0  0  0  0  0
    7.1447   -0.8250    0.0000 O   0  0  0  0  0  0  0  0  0  0  0  0
    7.8592   -0.4125    0.0000 C   0  0  0  0  0  0  0  0  0  0  0  0
    8.5737   -0.8250    0.0000 C   0  0  0  0  0  0  0  0  0  0  0  0
    9.2881   -0.4125    0.0000 C   0  0  0  0  0  0  0  0  0  0  0  0
   10.0026   -0.8250    0.0000 C   0  0  0  0  0  0  0  0  0  0  0  0
   10.0026   -1.6500    0.0000 C   0  0  0  0  0  0  0  0  0  0  0  0
    9.2881   -2.0625    0.0000 C   0  0  0  0  0  0  0  0  0  0  0  0
    8.5737   -1.6500    0.0000 C   0  0  0  0  0  0  0  0  0  0  0  0
    0.0000   -0.0000    0.0000 C   0  0  0  0  0  0  0  0  0  0  0  0
   -0.7145   -0.4125    0.0000 C   0  0  0  0  0  0  0  0  0  0  0  0
   -1.4289    0.0000    0.0000 C   0  0  0  0  0  0  0  0  0  0  0  0
   -2.1434    0.4125    0.0000 N   0  0  0  0  0  0  0  0  0  0  0  0
  1  2  1  0  0  0  0
  2  3  1  0  0  0  0
  2  4  1  0  0  0  0
  4  5  2  0  0  0  0
  5  6  1  0  0  0  0
  6  7  2  0  0  0  0
  7  8  1  0  0  0  0
  8  9  2  0  0  0  0
  9 10  1  0  0  0  0
 10 11  2  0  0  0  0
  6 11  1  0  0  0  0
  9 12  1  0  0  0  0
 12 13  2  0  0  0  0
 13 14  1  0  0  0  0
 14 15  2  0  0  0  0
 15 16  1  0  0  0  0
 16 17  2  0  0  0  0
 12 17  1  0  0  0  0
 16 18  1  0  0  0  0
 18 19  1  0  0  0  0
 18 20  1  0  0  0  0
 18 21  1  0  0  0  0
 21 22  1  0  0  0  0
 22 23  2  0  0  0  0
 22 24  1  0  0  0  0
 24 25  1  0  0  0  0
 25 26  1  0  0  0  0
 26 27  2  0  0  0  0
 27 28  1  0  0  0  0
 28 29  2  0  0  0  0
 29 30  1  0  0  0  0
 30 31  2  0  0  0  0
 26 31  1  0  0  0  0
  7 32  1  0  0  0  0
 32 33  2  0  0  0  0
  4 33  1  0  0  0  0
 33 34  1  0  0  0  0
 34 35  3  0  0  0  0
M  END
> <ID>
CPD_5440

$$$$
CPD_5445
  Mrv1822 09091914012D          

 30 32  0  0  0  0            999 V2000
    2.1434   -0.4125    0.0000 C   0  0  0  0  0  0  0  0  0  0  0  0
    1.4289   -0.8250    0.0000 C   0  0  0  0  0  0  0  0  0  0  0  0
    1.4289   -1.6500    0.0000 C   0  0  0  0  0  0  0  0  0  0  0  0
    0.7145   -2.0625    0.0000 O   0  0  0  0  0  0  0  0  0  0  0  0
    0.7145   -2.8875    0.0000 C   0  0  0  0  0  0  0  0  0  0  0  0
    1.4289   -3.3000    0.0000 C   0  0  0  0  0  0  0  0  0  0  0  0
    2.1434   -2.8875    0.0000 O   0  0  0  0  0  0  0  0  0  0  0  0
    2.1434   -2.0625    0.0000 C   0  0  0  0  0  0  0  0  0  0  0  0
    1.4289   -4.1250    0.0000 C   0  0  0  0  0  0  0  0  0  0  0  0
    0.7145   -4.5375    0.0000 C   0  0  0  0  0  0  0  0  0  0  0  0
    0.7145   -5.3625    0.0000 Br  0  0  0  0  0  0  0  0  0  0  0  0
    0.0000   -4.1250    0.0000 C   0  0  0  0  0  0  0  0  0  0  0  0
    0.0000   -3.3000    0.0000 C   0  0  0  0  0  0  0  0  0  0  0  0
   -0.7145   -2.8875    0.0000 C   0  0  0  0  0  0  0  0  0  0  0  0
   -0.7145   -2.0625    0.0000 C   0  0  0  0  0  0  0  0  0  0  0  0
   -1.4289   -1.6500    0.0000 C   0  0  0  0  0  0  0  0  0  0  0  0
   -2.1434   -2.0625    0.0000 C   0  0  0  0  0  0  0  0  0  0  0  0
   -2.1434   -2.8875    0.0000 C   0  0  0  0  0  0  0  0  0  0  0  0
   -1.4289   -3.3000    0.0000 C   0  0  0  0  0  0  0  0  0  0  0  0
   -1.4289   -4.1250    0.0000 S   0  0  0  0  0  0  0  0  0  0  0  0
   -2.2539   -4.1250    0.0000 O   0  0  0  0  0  0  0  0  0  0  0  0
   -0.6039   -4.1250    0.0000 O   0  0  0  0  0  0  0  0  0  0  0  0
   -1.4289   -4.9500    0.0000 N   0  0  0  0  0  0  0  0  0  0  0  0
   -2.1434   -5.3625    0.0000 C   0  0  0  0  0  0  0  0  0  0  0  0
   -2.1434   -6.1875    0.0000 C   0  0  0  0  0  0  0  0  0  0  0  0
   -2.8579   -6.6000    0.0000 C   0  0  0  0  0  0  0  0  0  0  0  0
   -3.5724   -6.1875    0.0000 C   0  0  0  0  0  0  0  0  0  0  0  0
   -3.5724   -5.3625    0.0000 C   0  0  0  0  0  0  0  0  0  0  0  0
   -4.2868   -4.9500    0.0000 F   0  0  0  0  0  0  0  0  0  0  0  0
   -2.8579   -4.9500    0.0000 C   0  0  0  0  0  0  0  0  0  0  0  0
  1  2  1  0  0  0  0
  2  3  1  0  0  0  0
  3  4  1  0  0  0  0
  4  5  1  0  0  0  0
  5  6  2  0  0  0  0
  6  7  1  0  0  0  0
  7  8  1  0  0  0  0
  6  9  1  0  0  0  0
  9 10  2  0  0  0  0
 10 11  1  0  0  0  0
 10 12  1  0  0  0  0
 12 13  2  0  0  0  0
  5 13  1  0  0  0  0
 13 14  1  0  0  0  0
 14 15  2  0  0  0  0
 15 16  1  0  0  0  0
 16 17  2  0  0  0  0
 17 18  1  0  0  0  0
 18 19  2  0  0  0  0
 14 19  1  0  0  0  0
 19 20  1  0  0  0  0
 20 21  2  0  0  0  0
 20 22  2  0  0  0  0
 20 23  1  0  0  0  0
 23 24  1  0  0  0  0
 24 25  2  0  0  0  0
 25 26  1  0  0  0  0
 26 27  2  0  0  0  0
 27 28  1  0  0  0  0
 28 29  1  0  0  0  0
 28 30  2  0  0  0  0
 24 30  1  0  0  0  0
M  END
> <ID>
CPD_5445

$$$$
CPD_5450
  Mrv1822 09091914012D          

 28 30  0  0  0  0            999 V2000
   -1.4289   -0.0000    0.0000 C   0  0  0  0  0  0  0  0  0  0  0  0
   -0.7145   -0.4125    0.0000 C   0  0  0  0  0  0  0  0  0  0  0  0
   -0.7145   -1.2375    0.0000 C   0  0  0  0  0  0  0  0  0  0  0  0
    0.0000   -1.6500    0.0000 O   0  0  0  0  0  0  0  0  0  0  0  0
    0.0000   -2.4750    0.0000 C   0  0  0  0  0  0  0  0  0  0  0  0
   -0.7145   -2.8875    0.0000 C   0  0  0  0  0  0  0  0  0  0  0  0
   -1.4289   -2.4750    0.0000 O   0  0  0  0  0  0  0  0  0  0  0  0
   -1.4289   -1.6500    0.0000 C   0  0  0  0  0  0  0  0  0  0  0  0
   -0.7145   -3.7125    0.0000 C   0  0  0  0  0  0  0  0  0  0  0  0
    0.0000   -4.1250    0.0000 C   0  0  0  0  0  0  0  0  0  0  0  0
    0.0000   -4.9500    0.0000 Br  0  0  0  0  0  0  0  0  0  0  0  0
    0.7145   -3.7125    0.0000 C   0  0  0  0  0  0  0  0  0  0  0  0
    0.7145   -2.8875    0.0000 C   0  0  0  0  0  0  0  0  0  0  0  0
    1.4289   -2.4750    0.0000 C   0  0  0  0  0  0  0  0  0  0  0  0
    2.1434   -2.8875    0.0000 C   0  0  0  0  0  0  0  0  0  0  0  0
    2.8579   -2.4750    0.0000 C   0  0  0  0  0  0  0  0  0  0  0  0
    2.8579   -1.6500    0.0000 C   0  0  0  0  0  0  0  0  0  0  0  0
    2.1434   -1.2375    0.0000 C   0  0  0  0  0  0  0  0  0  0  0  0
    2.1434   -0.4125    0.0000 F   0  0  0  0  0  0  0  0  0  0  0  0
    1.4289   -1.6500    0.0000 C   0  0  0  0  0  0  0  0  0  0  0  0
    0.7145   -1.2375    0.0000 C   0  0  0  0  0  0  0  0  0  0  0  0
    0.7145   -0.4125    0.0000 N   0  0  0  0  0  0  0  0  0  0  0  0
    0.0000    0.0000    0.0000 C   0  0  0  0  0  0  0  0  0  0  0  0
    0.0000    0.8250    0.0000 C   0  0  0  0  0  0  0  0  0  0  0  0
    0.7145    1.2375    0.0000 N   0  0  0  0  0  0  0  0  0  0  0  0
    0.7145    2.0625    0.0000 C   0  0  0  0  0  0  0  0  0  0  0  0
    1.4289    0.8250    0.0000 C   0  0  0  0  0  0  0  0  0  0  0  0
    1.4289   -0.0000    0.0000 C   0  0  0  0  0  0  0  0  0  0  0  0
  1  2  1  0  0  0  0
  2  3  1  0  0  0  0
  3  4  1  0  0  0  0
  4  5  1  0  0  0  0
  5  6  2  0  0  0  0
  6  7  1  0  0  0  0
  7  8  1  0  0  0  0
  6  9  1  0  0  0  0
  9 10  2  0  0  0  0
 10 11  1  0  0  0  0
 10 12  1  0  0  0  0
 12 13  2  0  0  0  0
  5 13  1  0  0  0  0
 13 14  1  0  0  0  0
 14 15  2  0  0  0  0
 15 16  1  0  0  0  0
 16 17  2  0  0  0  0
 17 18  1  0  0  0  0
 18 19  1  0  0  0  0
 18 20  2  0  0  0  0
 14 20  1  0  0  0  0
 20 21  1  0  0  0  0
 21 22  1  0  0  0  0
 22 23  1  0  0  0  0
 23 24  1  0  0  0  0
 24 25  1  0  0  0  0
 25 26  1  0  0  0  0
 25 27  1  0  0  0  0
 27 28  1  0  0  0  0
 22 28  1  0  0  0  0
M  END
> <ID>
CPD_5450

$$$$
CPD_5455
  Mrv1822 09091914012D          

 30 32  0  0  0  0            999 V2000
   -1.8414   -1.7605    0.0000 C   0  0  0  0  0  0  0  0  0  0  0  0
   -1.4289   -2.4750    0.0000 O   0  0  0  0  0  0  0  0  0  0  0  0
   -0.6039   -2.4750    0.0000 C   0  0  0  0  0  0  0  0  0  0  0  0
   -0.1914   -1.7605    0.0000 O   0  0  0  0  0  0  0  0  0  0  0  0
   -0.1914   -3.1895    0.0000 C   0  0  0  0  0  0  0  0  0  0  0  0
    0.6336   -3.1895    0.0000 N   0  0  0  0  0  0  0  0  0  0  0  0
    1.0461   -3.9039    0.0000 C   0  0  0  0  0  0  0  0  0  0  0  0
    1.8711   -3.9039    0.0000 C   0  0  0  0  0  0  0  0  0  0  0  0
    2.2836   -4.6184    0.0000 C   0  0  0  0  0  0  0  0  0  0  0  0
    1.8711   -5.3329    0.0000 C   0  0  0  0  0  0  0  0  0  0  0  0
    1.0461   -5.3329    0.0000 C   0  0  0  0  0  0  0  0  0  0  0  0
    0.6336   -4.6184    0.0000 C   0  0  0  0  0  0  0  0  0  0  0  0
    2.2836   -6.0474    0.0000 C   0  0  0  0  0  0  0  0  0  0  0  0
    3.1086   -6.0474    0.0000 C   0  0  0  0  0  0  0  0  0  0  0  0
    3.5211   -6.7618    0.0000 C   0  0  0  0  0  0  0  0  0  0  0  0
    3.1086   -7.4763    0.0000 C   0  0  0  0  0  0  0  0  0  0  0  0
    2.2836   -7.4763    0.0000 C   0  0  0  0  0  0  0  0  0  0  0  0
    1.8711   -6.7618    0.0000 C   0  0  0  0  0  0  0  0  0  0  0  0
    1.8711   -8.1908    0.0000 C   0  0  0  0  0  0  0  0  0  0  0  0
    2.2836   -8.9052    0.0000 O   0  0  0  0  0  0  0  0  0  0  0  0
    1.0461   -8.1908    0.0000 O   0  0  0  0  0  0  0  0  0  0  0  0
    1.0461   -2.4750    0.0000 S   0  0  0  0  0  0  0  0  0  0  0  0
    1.7605   -2.8875    0.0000 O   0  0  0  0  0  0  0  0  0  0  0  0
    0.3316   -2.0625    0.0000 O   0  0  0  0  0  0  0  0  0  0  0  0
    1.4586   -1.7605    0.0000 C   0  0  0  0  0  0  0  0  0  0  0  0
    1.0461   -1.0461    0.0000 C   0  0  0  0  0  0  0  0  0  0  0  0
    1.4586   -0.3316    0.0000 C   0  0  0  0  0  0  0  0  0  0  0  0
    2.2836   -0.3316    0.0000 C   0  0  0  0  0  0  0  0  0  0  0  0
    2.6961   -1.0461    0.0000 C   0  0  0  0  0  0  0  0  0  0  0  0
    2.2836   -1.7605    0.0000 C   0  0  0  0  0  0  0  0  0  0  0  0
  1  2  1  0  0  0  0
  2  3  1  0  0  0  0
  3  4  2  0  0  0  0
  3  5  1  0  0  0  0
  5  6  1  0  0  0  0
  6  7  1  0  0  0  0
  7  8  2  0  0  0  0
  8  9  1  0  0  0  0
  9 10  2  0  0  0  0
 10 11  1  0  0  0  0
 11 12  2  0  0  0  0
  7 12  1  0  0  0  0
 10 13  1  0  0  0  0
 13 14  2  0  0  0  0
 14 15  1  0  0  0  0
 15 16  2  0  0  0  0
 16 17  1  0  0  0  0
 17 18  2  0  0  0  0
 13 18  1  0  0  0  0
 17 19  1  0  0  0  0
 19 20  1  0  0  0  0
 19 21  2  0  0  0  0
  6 22  1  0  0  0  0
 22 23  2  0  0  0  0
 22 24  2  0  0  0  0
 22 25  1  0  0  0  0
 25 26  2  0  0  0  0
 26 27  1  0  0  0  0
 27 28  2  0  0  0  0
 28 29  1  0  0  0  0
 29 30  2  0  0  0  0
 25 30  1  0  0  0  0
M  END
> <ID>
CPD_5455

$$$$
CPD_5460
  Mrv1822 09091914012D          

 29 31  0  0  0  0            999 V2000
   -1.8414   -1.7605    0.0000 C   0  0  0  0  0  0  0  0  0  0  0  0
   -1.4289   -2.4750    0.0000 O   0  0  0  0  0  0  0  0  0  0  0  0
   -0.6039   -2.4750    0.0000 C   0  0  0  0  0  0  0  0  0  0  0  0
   -0.1914   -1.7605    0.0000 O   0  0  0  0  0  0  0  0  0  0  0  0
   -0.1914   -3.1895    0.0000 C   0  0  0  0  0  0  0  0  0  0  0  0
    0.6336   -3.1895    0.0000 N   0  0  0  0  0  0  0  0  0  0  0  0
    1.0461   -3.9039    0.0000 C   0  0  0  0  0  0  0  0  0  0  0  0
    1.8711   -3.9039    0.0000 C   0  0  0  0  0  0  0  0  0  0  0  0
    2.2836   -4.6184    0.0000 C   0  0  0  0  0  0  0  0  0  0  0  0
    1.8711   -5.3329    0.0000 C   0  0  0  0  0  0  0  0  0  0  0  0
    1.0461   -5.3329    0.0000 C   0  0  0  0  0  0  0  0  0  0  0  0
    0.6336   -4.6184    0.0000 C   0  0  0  0  0  0  0  0  0  0  0  0
    2.2836   -6.0474    0.0000 C   0  0  0  0  0  0  0  0  0  0  0  0
    3.1086   -6.0474    0.0000 C   0  0  0  0  0  0  0  0  0  0  0  0
    3.5211   -6.7618    0.0000 C   0  0  0  0  0  0  0  0  0  0  0  0
    4.3461   -6.7618    0.0000 F   0  0  0  0  0  0  0  0  0  0  0  0
    3.1086   -7.4763    0.0000 C   0  0  0  0  0  0  0  0  0  0  0  0
    3.5211   -8.1908    0.0000 N   0  0  0  0  0  0  0  0  0  0  0  0
    2.2836   -7.4763    0.0000 C   0  0  0  0  0  0  0  0  0  0  0  0
    1.8711   -6.7618    0.0000 C   0  0  0  0  0  0  0  0  0  0  0  0
    1.0461   -2.4750    0.0000 S   0  0  0  0  0  0  0  0  0  0  0  0
    1.7605   -2.8875    0.0000 O   0  0  0  0  0  0  0  0  0  0  0  0
    0.3316   -2.0625    0.0000 O   0  0  0  0  0  0  0  0  0  0  0  0
    1.4586   -1.7605    0.0000 C   0  0  0  0  0  0  0  0  0  0  0  0
    1.0461   -1.0461    0.0000 C   0  0  0  0  0  0  0  0  0  0  0  0
    1.4586   -0.3316    0.0000 C   0  0  0  0  0  0  0  0  0  0  0  0
    2.2836   -0.3316    0.0000 C   0  0  0  0  0  0  0  0  0  0  0  0
    2.6961   -1.0461    0.0000 C   0  0  0  0  0  0  0  0  0  0  0  0
    2.2836   -1.7605    0.0000 C   0  0  0  0  0  0  0  0  0  0  0  0
  1  2  1  0  0  0  0
  2  3  1  0  0  0  0
  3  4  2  0  0  0  0
  3  5  1  0  0  0  0
  5  6  1  0  0  0  0
  6  7  1  0  0  0  0
  7  8  2  0  0  0  0
  8  9  1  0  0  0  0
  9 10  2  0  0  0  0
 10 11  1  0  0  0  0
 11 12  2  0  0  0  0
  7 12  1  0  0  0  0
 10 13  1  0  0  0  0
 13 14  2  0  0  0  0
 14 15  1  0  0  0  0
 15 16  1  0  0  0  0
 15 17  2  0  0  0  0
 17 18  1  0  0  0  0
 17 19  1  0  0  0  0
 19 20  2  0  0  0  0
 13 20  1  0  0  0  0
  6 21  1  0  0  0  0
 21 22  2  0  0  0  0
 21 23  2  0  0  0  0
 21 24  1  0  0  0  0
 24 25  2  0  0  0  0
 25 26  1  0  0  0  0
 26 27  2  0  0  0  0
 27 28  1  0  0  0  0
 28 29  2  0  0  0  0
 24 29  1  0  0  0  0
M  END
> <ID>
CPD_5460

$$$$
CPD_5465
  Mrv1822 09091914012D          

 27 29  0  0  0  0            999 V2000
   -1.8414   -1.7605    0.0000 C   0  0  0  0  0  0  0  0  0  0  0  0
   -1.4289   -2.4750    0.0000 O   0  0  0  0  0  0  0  0  0  0  0  0
   -0.6039   -2.4750    0.0000 C   0  0  0  0  0  0  0  0  0  0  0  0
   -0.1914   -1.7605    0.0000 O   0  0  0  0  0  0  0  0  0  0  0  0
   -0.1914   -3.1895    0.0000 C   0  0  0  0  0  0  0  0  0  0  0  0
    0.6336   -3.1895    0.0000 N   0  0  0  0  0  0  0  0  0  0  0  0
    1.0461   -3.9039    0.0000 C   0  0  0  0  0  0  0  0  0  0  0  0
    1.8711   -3.9039    0.0000 C   0  0  0  0  0  0  0  0  0  0  0  0
    2.2836   -4.6184    0.0000 C   0  0  0  0  0  0  0  0  0  0  0  0
    1.8711   -5.3329    0.0000 C   0  0  0  0  0  0  0  0  0  0  0  0
    1.0461   -5.3329    0.0000 C   0  0  0  0  0  0  0  0  0  0  0  0
    0.6336   -4.6184    0.0000 C   0  0  0  0  0  0  0  0  0  0  0  0
    2.2836   -6.0474    0.0000 C   0  0  0  0  0  0  0  0  0  0  0  0
    3.1086   -6.0474    0.0000 C   0  0  0  0  0  0  0  0  0  0  0  0
    3.5211   -6.7618    0.0000 N   0  0  0  0  0  0  0  0  0  0  0  0
    3.1086   -7.4763    0.0000 C   0  0  0  0  0  0  0  0  0  0  0  0
    2.2836   -7.4763    0.0000 N   0  0  0  0  0  0  0  0  0  0  0  0
    1.8711   -6.7618    0.0000 C   0  0  0  0  0  0  0  0  0  0  0  0
    1.0461   -2.4750    0.0000 S   0  0  0  0  0  0  0  0  0  0  0  0
    1.7605   -2.8875    0.0000 O   0  0  0  0  0  0  0  0  0  0  0  0
    0.3316   -2.0625    0.0000 O   0  0  0  0  0  0  0  0  0  0  0  0
    1.4586   -1.7605    0.0000 C   0  0  0  0  0  0  0  0  0  0  0  0
    1.0461   -1.0461    0.0000 C   0  0  0  0  0  0  0  0  0  0  0  0
    1.4586   -0.3316    0.0000 C   0  0  0  0  0  0  0  0  0  0  0  0
    2.2836   -0.3316    0.0000 C   0  0  0  0  0  0  0  0  0  0  0  0
    2.6961   -1.0461    0.0000 C   0  0  0  0  0  0  0  0  0  0  0  0
    2.2836   -1.7605    0.0000 C   0  0  0  0  0  0  0  0  0  0  0  0
  1  2  1  0  0  0  0
  2  3  1  0  0  0  0
  3  4  2  0  0  0  0
  3  5  1  0  0  0  0
  5  6  1  0  0  0  0
  6  7  1  0  0  0  0
  7  8  2  0  0  0  0
  8  9  1  0  0  0  0
  9 10  2  0  0  0  0
 10 11  1  0  0  0  0
 11 12  2  0  0  0  0
  7 12  1  0  0  0  0
 10 13  1  0  0  0  0
 13 14  2  0  0  0  0
 14 15  1  0  0  0  0
 15 16  2  0  0  0  0
 16 17  1  0  0  0  0
 17 18  2  0  0  0  0
 13 18  1  0  0  0  0
  6 19  1  0  0  0  0
 19 20  2  0  0  0  0
 19 21  2  0  0  0  0
 19 22  1  0  0  0  0
 22 23  2  0  0  0  0
 23 24  1  0  0  0  0
 24 25  2  0  0  0  0
 25 26  1  0  0  0  0
 26 27  2  0  0  0  0
 22 27  1  0  0  0  0
M  END
> <ID>
CPD_5465

$$$$
CPD_5470
  Mrv1822 09091914012D          

 34 37  0  0  0  0            999 V2000
   -1.9275   -5.5925    0.0000 C   0  0  0  0  0  0  0  0  0  0  0  0
   -1.5150   -6.3070    0.0000 O   0  0  0  0  0  0  0  0  0  0  0  0
   -0.6900   -6.3070    0.0000 C   0  0  0  0  0  0  0  0  0  0  0  0
   -0.2775   -5.5925    0.0000 O   0  0  0  0  0  0  0  0  0  0  0  0
   -0.2775   -7.0215    0.0000 C   0  0  0  0  0  0  0  0  0  0  0  0
    0.5475   -7.0215    0.0000 N   0  0  0  0  0  0  0  0  0  0  0  0
    0.9600   -7.7359    0.0000 C   0  0  0  0  0  0  0  0  0  0  0  0
    1.7850   -7.7359    0.0000 C   0  0  0  0  0  0  0  0  0  0  0  0
    2.1975   -8.4504    0.0000 C   0  0  0  0  0  0  0  0  0  0  0  0
    1.7850   -9.1649    0.0000 C   0  0  0  0  0  0  0  0  0  0  0  0
    0.9600   -9.1649    0.0000 C   0  0  0  0  0  0  0  0  0  0  0  0
    0.5475   -8.4504    0.0000 C   0  0  0  0  0  0  0  0  0  0  0  0
    2.1975   -9.8794    0.0000 C   0  0  0  0  0  0  0  0  0  0  0  0
    1.8619  -10.6330    0.0000 N   0  0  0  0  0  0  0  0  0  0  0  0
    2.4750  -11.1851    0.0000 C   0  0  0  0  0  0  0  0  0  0  0  0
    3.1895  -10.7726    0.0000 C   0  0  0  0  0  0  0  0  0  0  0  0
    3.0179   -9.9656    0.0000 N   0  0  0  0  0  0  0  0  0  0  0  0
    3.9039  -11.1851    0.0000 C   0  0  0  0  0  0  0  0  0  0  0  0
    4.6184  -10.7726    0.0000 O   0  0  0  0  0  0  0  0  0  0  0  0
    3.9039  -12.0101    0.0000 N   0  0  0  0  0  0  0  0  0  0  0  0
    4.6184  -12.4226    0.0000 C   0  0  0  0  0  0  0  0  0  0  0  0
    3.1895  -12.4226    0.0000 C   0  0  0  0  0  0  0  0  0  0  0  0
    3.1895  -13.2476    0.0000 O   0  0  0  0  0  0  0  0  0  0  0  0
    2.4750  -12.0101    0.0000 N   0  0  0  0  0  0  0  0  0  0  0  0
    1.7605  -12.4226    0.0000 C   0  0  0  0  0  0  0  0  0  0  0  0
    0.9600   -6.3070    0.0000 S   0  0  0  0  0  0  0  0  0  0  0  0
    0.2455   -5.8945    0.0000 O   0  0  0  0  0  0  0  0  0  0  0  0
    1.6744   -6.7195    0.0000 O   0  0  0  0  0  0  0  0  0  0  0  0
    1.3725   -5.5925    0.0000 C   0  0  0  0  0  0  0  0  0  0  0  0
    0.9600   -4.8781    0.0000 C   0  0  0  0  0  0  0  0  0  0  0  0
    1.3725   -4.1636    0.0000 C   0  0  0  0  0  0  0  0  0  0  0  0
    2.1975   -4.1636    0.0000 C   0  0  0  0  0  0  0  0  0  0  0  0
    2.6100   -4.8781    0.0000 C   0  0  0  0  0  0  0  0  0  0  0  0
    2.1975   -5.5925    0.0000 C   0  0  0  0  0  0  0  0  0  0  0  0
  1  2  1  0  0  0  0
  2  3  1  0  0  0  0
  3  4  2  0  0  0  0
  3  5  1  0  0  0  0
  5  6  1  0  0  0  0
  6  7  1  0  0  0  0
  7  8  2  0  0  0  0
  8  9  1  0  0  0  0
  9 10  2  0  0  0  0
 10 11  1  0  0  0  0
 11 12  2  0  0  0  0
  7 12  1  0  0  0  0
 10 13  1  0  0  0  0
 13 14  2  0  0  0  0
 14 15  1  0  0  0  0
 15 16  2  0  0  0  0
 16 17  1  0  0  0  0
 13 17  1  0  0  0  0
 16 18  1  0  0  0  0
 18 19  2  0  0  0  0
 18 20  1  0  0  0  0
 20 21  1  0  0  0  0
 20 22  1  0  0  0  0
 22 23  2  0  0  0  0
 22 24  1  0  0  0  0
 15 24  1  0  0  0  0
 24 25  1  0  0  0  0
  6 26  1  0  0  0  0
 26 27  2  0  0  0  0
 26 28  2  0  0  0  0
 26 29  1  0  0  0  0
 29 30  2  0  0  0  0
 30 31  1  0  0  0  0
 31 32  2  0  0  0  0
 32 33  1  0  0  0  0
 33 34  2  0  0  0  0
 29 34  1  0  0  0  0
M  END
> <ID>
CPD_5470

$$$$
CPD_5475
  Mrv1822 09091914012D          

 20 21  0  0  0  0            999 V2000
    0.7145   -0.4125    0.0000 C   0  0  0  0  0  0  0  0  0  0  0  0
    0.7145   -1.2375    0.0000 C   0  0  0  0  0  0  0  0  0  0  0  0
    1.3819   -1.7224    0.0000 N   0  0  0  0  0  0  0  0  0  0  0  0
    1.1270   -2.5070    0.0000 N   0  0  0  0  0  0  0  0  0  0  0  0
    1.6119   -3.1745    0.0000 C   0  0  0  0  0  0  0  0  0  0  0  0
    2.4324   -3.0882    0.0000 N   0  0  0  0  0  0  0  0  0  0  0  0
    1.2763   -3.9282    0.0000 N   0  0  0  0  0  0  0  0  0  0  0  0
    0.3020   -2.5070    0.0000 C   0  0  0  0  0  0  0  0  0  0  0  0
   -0.1830   -3.1745    0.0000 C   0  0  0  0  0  0  0  0  0  0  0  0
    0.0470   -1.7224    0.0000 C   0  0  0  0  0  0  0  0  0  0  0  0
   -0.7376   -1.4675    0.0000 C   0  0  0  0  0  0  0  0  0  0  0  0
   -1.3507   -2.0195    0.0000 N   0  0  0  0  0  0  0  0  0  0  0  0
   -2.1353   -1.7646    0.0000 C   0  0  0  0  0  0  0  0  0  0  0  0
   -2.3068   -0.9576    0.0000 C   0  0  0  0  0  0  0  0  0  0  0  0
   -1.6937   -0.4056    0.0000 N   0  0  0  0  0  0  0  0  0  0  0  0
   -0.9091   -0.6605    0.0000 C   0  0  0  0  0  0  0  0  0  0  0  0
   -0.2960   -0.1085    0.0000 C   0  0  0  0  0  0  0  0  0  0  0  0
    0.3171    0.4436    0.0000 F   0  0  0  0  0  0  0  0  0  0  0  0
    0.2560   -0.7216    0.0000 F   0  0  0  0  0  0  0  0  0  0  0  0
   -0.8481    0.5046    0.0000 F   0  0  0  0  0  0  0  0  0  0  0  0
  1  2  1  0  0  0  0
  2  3  2  0  0  0  0
  3  4  1  0  0  0  0
  4  5  1  0  0  0  0
  5  6  1  0  0  0  0
  5  7  2  0  0  0  0
  4  8  1  0  0  0  0
  8  9  1  0  0  0  0
  8 10  2  0  0  0  0
  2 10  1  0  0  0  0
 10 11  1  0  0  0  0
 11 12  2  0  0  0  0
 12 13  1  0  0  0  0
 13 14  2  0  0  0  0
 14 15  1  0  0  0  0
 15 16  2  0  0  0  0
 11 16  1  0  0  0  0
 16 17  1  0  0  0  0
 17 18  1  0  0  0  0
 17 19  1  0  0  0  0
 17 20  1  0  0  0  0
M  END
> <ID>
CPD_5475

$$$$
CPD_5480
  Mrv1822 09091914012D          

 21 22  0  0  0  0            999 V2000
   -0.7145    1.2375    0.0000 C   0  0  0  0  0  0  0  0  0  0  0  0
    0.0000    0.8250    0.0000 C   0  0  0  0  0  0  0  0  0  0  0  0
    0.0000    0.0000    0.0000 C   0  0  0  0  0  0  0  0  0  0  0  0
    0.7145   -0.4125    0.0000 N   0  0  0  0  0  0  0  0  0  0  0  0
    0.7145   -1.2375    0.0000 C   0  0  0  0  0  0  0  0  0  0  0  0
    1.4289   -1.6500    0.0000 N   0  0  0  0  0  0  0  0  0  0  0  0
    1.4289   -2.4750    0.0000 C   0  0  0  0  0  0  0  0  0  0  0  0
    0.7145   -2.8875    0.0000 C   0  0  0  0  0  0  0  0  0  0  0  0
    0.0000   -2.4750    0.0000 C   0  0  0  0  0  0  0  0  0  0  0  0
    0.0000   -1.6500    0.0000 C   0  0  0  0  0  0  0  0  0  0  0  0
   -0.7145   -1.2375    0.0000 N   0  0  0  0  0  0  0  0  0  0  0  0
    0.7145   -3.7125    0.0000 C   0  0  0  0  0  0  0  0  0  0  0  0
    1.4289   -4.1250    0.0000 N   0  0  0  0  0  0  0  0  0  0  0  0
    1.4289   -4.9500    0.0000 C   0  0  0  0  0  0  0  0  0  0  0  0
    0.7145   -5.3625    0.0000 C   0  0  0  0  0  0  0  0  0  0  0  0
   -0.0000   -4.9500    0.0000 N   0  0  0  0  0  0  0  0  0  0  0  0
    0.0000   -4.1250    0.0000 C   0  0  0  0  0  0  0  0  0  0  0  0
   -0.7145   -3.7125    0.0000 C   0  0  0  0  0  0  0  0  0  0  0  0
   -1.4289   -3.3000    0.0000 F   0  0  0  0  0  0  0  0  0  0  0  0
   -0.3020   -2.9980    0.0000 F   0  0  0  0  0  0  0  0  0  0  0  0
   -1.1270   -4.4270    0.0000 F   0  0  0  0  0  0  0  0  0  0  0  0
  1  2  1  0  0  0  0
  2  3  1  0  0  0  0
  3  4  1  0  0  0  0
  4  5  1  0  0  0  0
  5  6  2  0  0  0  0
  6  7  1  0  0  0  0
  7  8  2  0  0  0  0
  8  9  1  0  0  0  0
  9 10  2  0  0  0  0
  5 10  1  0  0  0  0
 10 11  1  0  0  0  0
  8 12  1  0  0  0  0
 12 13  2  0  0  0  0
 13 14  1  0  0  0  0
 14 15  2  0  0  0  0
 15 16  1  0  0  0  0
 16 17  2  0  0  0  0
 12 17  1  0  0  0  0
 17 18  1  0  0  0  0
 18 19  1  0  0  0  0
 18 20  1  0  0  0  0
 18 21  1  0  0  0  0
M  END
> <ID>
CPD_5480

$$$$
CPD_5485
  Mrv1822 09091914012D          

 30 34  0  0  0  0            999 V2000
    5.3724    3.8602    0.0000 N   0  0  0  0  0  0  0  0  0  0  0  0
    4.8005    4.4549    0.0000 C   0  0  0  0  0  0  0  0  0  0  0  0
    3.9996    4.2569    0.0000 C   0  0  0  0  0  0  0  0  0  0  0  0
    3.4277    4.8516    0.0000 C   0  0  0  0  0  0  0  0  0  0  0  0
    3.6568    5.6442    0.0000 C   0  0  0  0  0  0  0  0  0  0  0  0
    3.0850    6.2388    0.0000 F   0  0  0  0  0  0  0  0  0  0  0  0
    4.4577    5.8421    0.0000 C   0  0  0  0  0  0  0  0  0  0  0  0
    4.6868    6.6346    0.0000 Br  0  0  0  0  0  0  0  0  0  0  0  0
    5.0296    5.2474    0.0000 C   0  0  0  0  0  0  0  0  0  0  0  0
    3.7705    3.4644    0.0000 C   0  0  0  0  0  0  0  0  0  0  0  0
    4.3424    2.8697    0.0000 C   0  0  0  0  0  0  0  0  0  0  0  0
    4.1133    2.0772    0.0000 C   0  0  0  0  0  0  0  0  0  0  0  0
    3.3124    1.8793    0.0000 C   0  0  0  0  0  0  0  0  0  0  0  0
    2.7406    2.4739    0.0000 C   0  0  0  0  0  0  0  0  0  0  0  0
    2.9696    3.2665    0.0000 C   0  0  0  0  0  0  0  0  0  0  0  0
    3.0834    1.0867    0.0000 N   0  0  0  0  0  0  0  0  0  0  0  0
    3.5899    0.4355    0.0000 C   0  0  0  0  0  0  0  0  0  0  0  0
    4.4145    0.4626    0.0000 O   0  0  0  0  0  0  0  0  0  0  0  0
    3.1271   -0.2475    0.0000 C   0  0  0  0  0  0  0  0  0  0  0  0
    2.3346   -0.0184    0.0000 S   0  0  0  0  0  0  0  0  0  0  0  0
    2.3075    0.8062    0.0000 C   0  0  0  0  0  0  0  0  0  0  0  0
    2.2804    1.6307    0.0000 C   0  0  0  0  0  0  0  0  0  0  0  0
    2.2534    2.4553    0.0000 O   0  0  0  0  0  0  0  0  0  0  0  0
    1.4879    1.8598    0.0000 N   0  0  0  0  0  0  0  0  0  0  0  0
    1.0251    1.1768    0.0000 C   0  0  0  0  0  0  0  0  0  0  0  0
    1.5317    0.5256    0.0000 C   0  0  0  0  0  0  0  0  0  0  0  0
    1.2210   -0.2387    0.0000 C   0  0  0  0  0  0  0  0  0  0  0  0
    0.4038   -0.3518    0.0000 C   0  0  0  0  0  0  0  0  0  0  0  0
   -0.1027    0.2994    0.0000 C   0  0  0  0  0  0  0  0  0  0  0  0
    0.2079    1.0637    0.0000 C   0  0  0  0  0  0  0  0  0  0  0  0
  1  2  1  0  0  0  0
  2  3  2  0  0  0  0
  3  4  1  0  0  0  0
  4  5  2  0  0  0  0
  5  6  1  0  0  0  0
  5  7  1  0  0  0  0
  7  8  1  0  0  0  0
  7  9  2  0  0  0  0
  2  9  1  0  0  0  0
  3 10  1  0  0  0  0
 10 11  2  0  0  0  0
 11 12  1  0  0  0  0
 12 13  2  0  0  0  0
 13 14  1  0  0  0  0
 14 15  2  0  0  0  0
 10 15  1  0  0  0  0
 13 16  1  0  0  0  0
 16 17  1  0  0  0  0
 17 18  2  0  0  0  0
 17 19  1  0  0  0  0
 19 20  1  0  0  0  0
 20 21  1  0  0  0  0
 16 21  1  0  0  0  0
 21 22  1  0  0  0  0
 22 23  2  0  0  0  0
 22 24  1  0  0  0  0
 24 25  1  0  0  0  0
 25 26  2  0  0  0  0
 21 26  1  0  0  0  0
 26 27  1  0  0  0  0
 27 28  2  0  0  0  0
 28 29  1  0  0  0  0
 29 30  2  0  0  0  0
 25 30  1  0  0  0  0
M  END
> <ID>
CPD_5485

$$$$
CPD_5490
  Mrv1822 09091914012D          

 21 23  0  0  0  0            999 V2000
    2.7512    0.7634    0.0000 C   0  0  0  0  0  0  0  0  0  0  0  0
    2.7512   -0.0616    0.0000 C   0  0  0  0  0  0  0  0  0  0  0  0
    3.4656   -0.4741    0.0000 C   0  0  0  0  0  0  0  0  0  0  0  0
    3.4656   -1.2991    0.0000 C   0  0  0  0  0  0  0  0  0  0  0  0
    2.7512   -1.7116    0.0000 C   0  0  0  0  0  0  0  0  0  0  0  0
    2.0367   -1.2991    0.0000 C   0  0  0  0  0  0  0  0  0  0  0  0
    2.0367   -0.4741    0.0000 C   0  0  0  0  0  0  0  0  0  0  0  0
    2.7512   -2.5366    0.0000 N   0  0  0  0  0  0  0  0  0  0  0  0
    3.4186   -3.0215    0.0000 C   0  0  0  0  0  0  0  0  0  0  0  0
    3.1637   -3.8062    0.0000 C   0  0  0  0  0  0  0  0  0  0  0  0
    2.3387   -3.8062    0.0000 C   0  0  0  0  0  0  0  0  0  0  0  0
    2.0837   -3.0215    0.0000 C   0  0  0  0  0  0  0  0  0  0  0  0
    4.1801   -0.0616    0.0000 C   0  0  0  0  0  0  0  0  0  0  0  0
    4.1801    0.7634    0.0000 C   0  0  0  0  0  0  0  0  0  0  0  0
    3.4656    1.1759    0.0000 N   0  0  0  0  0  0  0  0  0  0  0  0
    4.8946    1.1759    0.0000 C   0  0  0  0  0  0  0  0  0  0  0  0
    5.6091    0.7634    0.0000 C   0  0  0  0  0  0  0  0  0  0  0  0
    6.3235    1.1759    0.0000 Br  0  0  0  0  0  0  0  0  0  0  0  0
    5.6091   -0.0616    0.0000 C   0  0  0  0  0  0  0  0  0  0  0  0
    6.3235   -0.4741    0.0000 F   0  0  0  0  0  0  0  0  0  0  0  0
    4.8946   -0.4741    0.0000 C   0  0  0  0  0  0  0  0  0  0  0  0
  1  2  1  0  0  0  0
  2  3  2  0  0  0  0
  3  4  1  0  0  0  0
  4  5  2  0  0  0  0
  5  6  1  0  0  0  0
  6  7  2  0  0  0  0
  2  7  1  0  0  0  0
  5  8  1  0  0  0  0
  8  9  1  0  0  0  0
  9 10  1  0  0  0  0
 10 11  1  0  0  0  0
 11 12  1  0  0  0  0
  8 12  1  0  0  0  0
  3 13  1  0  0  0  0
 13 14  2  0  0  0  0
 14 15  1  0  0  0  0
 14 16  1  0  0  0  0
 16 17  2  0  0  0  0
 17 18  1  0  0  0  0
 17 19  1  0  0  0  0
 19 20  1  0  0  0  0
 19 21  2  0  0  0  0
 13 21  1  0  0  0  0
M  END
> <ID>
CPD_5490

$$$$
CPD_5495
  Mrv1822 09091914012D          

 21 22  0  0  0  0            999 V2000
    2.1434   -1.2375    0.0000 C   0  0  0  0  0  0  0  0  0  0  0  0
    2.8579   -0.8250    0.0000 C   0  0  0  0  0  0  0  0  0  0  0  0
    3.5724   -1.2375    0.0000 C   0  0  0  0  0  0  0  0  0  0  0  0
    3.5724   -2.0625    0.0000 C   0  0  0  0  0  0  0  0  0  0  0  0
    4.2868   -0.8250    0.0000 N   0  0  0  0  0  0  0  0  0  0  0  0
    5.0013   -1.2375    0.0000 C   0  0  0  0  0  0  0  0  0  0  0  0
    5.7158   -0.8250    0.0000 C   0  0  0  0  0  0  0  0  0  0  0  0
    5.7158    0.0000    0.0000 C   0  0  0  0  0  0  0  0  0  0  0  0
    6.4302    0.4125    0.0000 C   0  0  0  0  0  0  0  0  0  0  0  0
    7.1447    0.0000    0.0000 C   0  0  0  0  0  0  0  0  0  0  0  0
    7.1447   -0.8250    0.0000 C   0  0  0  0  0  0  0  0  0  0  0  0
    6.4302   -1.2375    0.0000 C   0  0  0  0  0  0  0  0  0  0  0  0
    6.4302   -2.0625    0.0000 C   0  0  0  0  0  0  0  0  0  0  0  0
    7.1447   -2.4750    0.0000 C   0  0  0  0  0  0  0  0  0  0  0  0
    7.8592   -2.0625    0.0000 N   0  0  0  0  0  0  0  0  0  0  0  0
    7.1447   -3.3000    0.0000 C   0  0  0  0  0  0  0  0  0  0  0  0
    6.4302   -3.7125    0.0000 C   0  0  0  0  0  0  0  0  0  0  0  0
    6.4302   -4.5375    0.0000 Br  0  0  0  0  0  0  0  0  0  0  0  0
    5.7158   -3.3000    0.0000 C   0  0  0  0  0  0  0  0  0  0  0  0
    5.0013   -3.7125    0.0000 F   0  0  0  0  0  0  0  0  0  0  0  0
    5.7158   -2.4750    0.0000 C   0  0  0  0  0  0  0  0  0  0  0  0
  1  2  1  0  0  0  0
  2  3  1  0  0  0  0
  3  4  1  0  0  0  0
  3  5  1  0  0  0  0
  5  6  1  0  0  0  0
  6  7  1  0  0  0  0
  7  8  2  0  0  0  0
  8  9  1  0  0  0  0
  9 10  2  0  0  0  0
 10 11  1  0  0  0  0
 11 12  2  0  0  0  0
  7 12  1  0  0  0  0
 12 13  1  0  0  0  0
 13 14  2  0  0  0  0
 14 15  1  0  0  0  0
 14 16  1  0  0  0  0
 16 17  2  0  0  0  0
 17 18  1  0  0  0  0
 17 19  1  0  0  0  0
 19 20  1  0  0  0  0
 19 21  2  0  0  0  0
 13 21  1  0  0  0  0
M  END
> <ID>
CPD_5495

$$$$
CPD_5500
  Mrv1822 09091914012D          

 33 36  0  0  0  0            999 V2000
    0.8838   -2.1500    0.0000 C   0  0  0  0  0  0  0  0  0  0  0  0
    1.1387   -1.3654    0.0000 C   0  0  0  0  0  0  0  0  0  0  0  0
    0.6538   -0.6979    0.0000 N   0  0  0  0  0  0  0  0  0  0  0  0
    1.1387   -0.0305    0.0000 N   0  0  0  0  0  0  0  0  0  0  0  0
    1.9233   -0.2854    0.0000 C   0  0  0  0  0  0  0  0  0  0  0  0
    2.6378    0.1271    0.0000 C   0  0  0  0  0  0  0  0  0  0  0  0
    3.3523   -0.2854    0.0000 C   0  0  0  0  0  0  0  0  0  0  0  0
    3.3523   -1.1104    0.0000 C   0  0  0  0  0  0  0  0  0  0  0  0
    2.6378   -1.5229    0.0000 C   0  0  0  0  0  0  0  0  0  0  0  0
    1.9233   -1.1104    0.0000 N   0  0  0  0  0  0  0  0  0  0  0  0
    4.0668   -1.5229    0.0000 S   0  0  0  0  0  0  0  0  0  0  0  0
    3.6543   -2.2374    0.0000 O   0  0  0  0  0  0  0  0  0  0  0  0
    4.4793   -0.8085    0.0000 O   0  0  0  0  0  0  0  0  0  0  0  0
    4.7812   -1.9354    0.0000 N   0  0  0  0  0  0  0  0  0  0  0  0
    4.7812   -2.7604    0.0000 C   0  0  0  0  0  0  0  0  0  0  0  0
    5.4957   -3.1729    0.0000 C   0  0  0  0  0  0  0  0  0  0  0  0
    5.4957   -3.9979    0.0000 C   0  0  0  0  0  0  0  0  0  0  0  0
    4.7812   -4.4104    0.0000 C   0  0  0  0  0  0  0  0  0  0  0  0
    4.0668   -3.9979    0.0000 C   0  0  0  0  0  0  0  0  0  0  0  0
    4.0668   -3.1729    0.0000 C   0  0  0  0  0  0  0  0  0  0  0  0
    6.2102   -4.4104    0.0000 C   0  0  0  0  0  0  0  0  0  0  0  0
    6.9246   -3.9979    0.0000 C   0  0  0  0  0  0  0  0  0  0  0  0
    7.6391   -4.4104    0.0000 C   0  0  0  0  0  0  0  0  0  0  0  0
    7.6391   -5.2354    0.0000 C   0  0  0  0  0  0  0  0  0  0  0  0
    6.9246   -5.6479    0.0000 C   0  0  0  0  0  0  0  0  0  0  0  0
    6.9246   -6.4729    0.0000 F   0  0  0  0  0  0  0  0  0  0  0  0
    6.2102   -5.2354    0.0000 C   0  0  0  0  0  0  0  0  0  0  0  0
    5.4957   -5.6479    0.0000 C   0  0  0  0  0  0  0  0  0  0  0  0
    4.7812   -5.2354    0.0000 N   0  0  0  0  0  0  0  0  0  0  0  0
    4.0668   -5.6479    0.0000 C   0  0  0  0  0  0  0  0  0  0  0  0
    3.3523   -6.0604    0.0000 C   0  0  0  0  0  0  0  0  0  0  0  0
    3.6543   -4.9335    0.0000 C   0  0  0  0  0  0  0  0  0  0  0  0
    4.4793   -6.3624    0.0000 C   0  0  0  0  0  0  0  0  0  0  0  0
  1  2  1  0  0  0  0
  2  3  2  0  0  0  0
  3  4  1  0  0  0  0
  4  5  2  0  0  0  0
  5  6  1  0  0  0  0
  6  7  2  0  0  0  0
  7  8  1  0  0  0  0
  8  9  2  0  0  0  0
  9 10  1  0  0  0  0
  2 10  1  0  0  0  0
  5 10  1  0  0  0  0
  8 11  1  0  0  0  0
 11 12  2  0  0  0  0
 11 13  2  0  0  0  0
 11 14  1  0  0  0  0
 14 15  1  0  0  0  0
 15 16  2  0  0  0  0
 16 17  1  0  0  0  0
 17 18  2  0  0  0  0
 18 19  1  0  0  0  0
 19 20  2  0  0  0  0
 15 20  1  0  0  0  0
 17 21  1  0  0  0  0
 21 22  2  0  0  0  0
 22 23  1  0  0  0  0
 23 24  2  0  0  0  0
 24 25  1  0  0  0  0
 25 26  1  0  0  0  0
 25 27  2  0  0  0  0
 21 27  1  0  0  0  0
 27 28  1  0  0  0  0
 28 29  1  0  0  0  0
 29 30  1  0  0  0  0
 30 31  1  0  0  0  0
 30 32  1  0  0  0  0
 30 33  1  0  0  0  0
M  END
> <ID>
CPD_5500

$$$$
CPD_5505
  Mrv1822 09091914012D          

 23 25  0  0  0  0            999 V2000
    2.0367   -1.2991    0.0000 N   0  0  0  0  0  0  0  0  0  0  0  0
    2.7512   -1.7116    0.0000 C   0  0  0  0  0  0  0  0  0  0  0  0
    2.7512   -2.5366    0.0000 C   0  0  0  0  0  0  0  0  0  0  0  0
    3.4186   -3.0215    0.0000 N   0  0  0  0  0  0  0  0  0  0  0  0
    3.1637   -3.8062    0.0000 C   0  0  0  0  0  0  0  0  0  0  0  0
    2.3387   -3.8062    0.0000 C   0  0  0  0  0  0  0  0  0  0  0  0
    2.0837   -3.0215    0.0000 S   0  0  0  0  0  0  0  0  0  0  0  0
    3.6486   -4.4736    0.0000 C   0  0  0  0  0  0  0  0  0  0  0  0
    4.4691   -4.3874    0.0000 C   0  0  0  0  0  0  0  0  0  0  0  0
    4.9540   -5.0548    0.0000 C   0  0  0  0  0  0  0  0  0  0  0  0
    4.6184   -5.8085    0.0000 C   0  0  0  0  0  0  0  0  0  0  0  0
    3.7980   -5.8947    0.0000 C   0  0  0  0  0  0  0  0  0  0  0  0
    3.3130   -5.2273    0.0000 C   0  0  0  0  0  0  0  0  0  0  0  0
    3.4624   -6.6484    0.0000 C   0  0  0  0  0  0  0  0  0  0  0  0
    3.9473   -7.3158    0.0000 C   0  0  0  0  0  0  0  0  0  0  0  0
    3.6118   -8.0695    0.0000 C   0  0  0  0  0  0  0  0  0  0  0  0
    2.7913   -8.1557    0.0000 C   0  0  0  0  0  0  0  0  0  0  0  0
    2.3064   -7.4883    0.0000 C   0  0  0  0  0  0  0  0  0  0  0  0
    2.6419   -6.7346    0.0000 C   0  0  0  0  0  0  0  0  0  0  0  0
    2.4557   -8.9094    0.0000 C   0  0  0  0  0  0  0  0  0  0  0  0
    2.9407   -9.5768    0.0000 N   0  0  0  0  0  0  0  0  0  0  0  0
    1.6353   -8.9956    0.0000 C   0  0  0  0  0  0  0  0  0  0  0  0
    1.2997   -9.7493    0.0000 O   0  0  0  0  0  0  0  0  0  0  0  0
  1  2  1  0  0  0  0
  2  3  1  0  0  0  0
  3  4  2  0  0  0  0
  4  5  1  0  0  0  0
  5  6  2  0  0  0  0
  6  7  1  0  0  0  0
  3  7  1  0  0  0  0
  5  8  1  0  0  0  0
  8  9  2  0  0  0  0
  9 10  1  0  0  0  0
 10 11  2  0  0  0  0
 11 12  1  0  0  0  0
 12 13  2  0  0  0  0
  8 13  1  0  0  0  0
 12 14  1  0  0  0  0
 14 15  2  0  0  0  0
 15 16  1  0  0  0  0
 16 17  2  0  0  0  0
 17 18  1  0  0  0  0
 18 19  2  0  0  0  0
 14 19  1  0  0  0  0
 17 20  1  0  0  0  0
 20 21  1  0  0  0  0
 20 22  1  0  0  0  0
 22 23  1  0  0  0  0
M  END
> <ID>
CPD_5505

$$$$
CPD_5510
  Mrv1822 09091914012D          

 38 40  0  0  0  0            999 V2000
    3.6791    4.3527    0.0000 C   0  0  0  0  0  0  0  0  0  0  0  0
    2.9646    4.7652    0.0000 O   0  0  0  0  0  0  0  0  0  0  0  0
    2.2501    4.3527    0.0000 C   0  0  0  0  0  0  0  0  0  0  0  0
    2.2501    3.5277    0.0000 O   0  0  0  0  0  0  0  0  0  0  0  0
    1.5356    4.7652    0.0000 C   0  0  0  0  0  0  0  0  0  0  0  0
    1.5356    5.5902    0.0000 C   0  0  0  0  0  0  0  0  0  0  0  0
    0.8212    6.0027    0.0000 N   0  0  0  0  0  0  0  0  0  0  0  0
    0.1067    5.5902    0.0000 C   0  0  0  0  0  0  0  0  0  0  0  0
   -0.6078    6.0027    0.0000 N   0  0  0  0  0  0  0  0  0  0  0  0
   -1.3222    5.5902    0.0000 C   0  0  0  0  0  0  0  0  0  0  0  0
   -1.8072    4.9227    0.0000 O   0  0  0  0  0  0  0  0  0  0  0  0
   -2.0367    6.0027    0.0000 O   0  0  0  0  0  0  0  0  0  0  0  0
   -2.7512    5.5902    0.0000 C   0  0  0  0  0  0  0  0  0  0  0  0
   -3.4656    5.1777    0.0000 C   0  0  0  0  0  0  0  0  0  0  0  0
   -2.3387    4.8757    0.0000 C   0  0  0  0  0  0  0  0  0  0  0  0
   -3.1637    6.3047    0.0000 C   0  0  0  0  0  0  0  0  0  0  0  0
   -0.6078    6.8277    0.0000 C   0  0  0  0  0  0  0  0  0  0  0  0
    0.1067    7.2402    0.0000 O   0  0  0  0  0  0  0  0  0  0  0  0
   -1.3222    7.2402    0.0000 O   0  0  0  0  0  0  0  0  0  0  0  0
   -1.3222    8.0652    0.0000 C   0  0  0  0  0  0  0  0  0  0  0  0
   -0.4972    8.0652    0.0000 C   0  0  0  0  0  0  0  0  0  0  0  0
   -2.1472    8.0652    0.0000 C   0  0  0  0  0  0  0  0  0  0  0  0
   -1.3222    8.8902    0.0000 C   0  0  0  0  0  0  0  0  0  0  0  0
    0.1067    4.7652    0.0000 C   0  0  0  0  0  0  0  0  0  0  0  0
    0.8212    4.3527    0.0000 C   0  0  0  0  0  0  0  0  0  0  0  0
   -0.6078    4.3527    0.0000 C   0  0  0  0  0  0  0  0  0  0  0  0
   -0.6078    3.5277    0.0000 C   0  0  0  0  0  0  0  0  0  0  0  0
   -1.3222    3.1152    0.0000 C   0  0  0  0  0  0  0  0  0  0  0  0
   -2.0367    3.5277    0.0000 C   0  0  0  0  0  0  0  0  0  0  0  0
   -2.0367    4.3527    0.0000 C   0  0  0  0  0  0  0  0  0  0  0  0
   -1.3222    4.7652    0.0000 C   0  0  0  0  0  0  0  0  0  0  0  0
   -1.3222    2.2902    0.0000 C   0  0  0  0  0  0  0  0  0  0  0  0
   -0.6548    1.8053    0.0000 C   0  0  0  0  0  0  0  0  0  0  0  0
   -0.9097    1.0206    0.0000 S   0  0  0  0  0  0  0  0  0  0  0  0
   -1.7347    1.0206    0.0000 C   0  0  0  0  0  0  0  0  0  0  0  0
   -2.2197    0.3532    0.0000 C   0  0  0  0  0  0  0  0  0  0  0  0
   -1.8841   -0.4005    0.0000 N   0  0  0  0  0  0  0  0  0  0  0  0
   -1.9897    1.8053    0.0000 N   0  0  0  0  0  0  0  0  0  0  0  0
  1  2  1  0  0  0  0
  2  3  1  0  0  0  0
  3  4  2  0  0  0  0
  3  5  1  0  0  0  0
  5  6  2  0  0  0  0
  6  7  1  0  0  0  0
  7  8  2  0  0  0  0
  8  9  1  0  0  0  0
  9 10  1  0  0  0  0
 10 11  2  0  0  0  0
 10 12  1  0  0  0  0
 12 13  1  0  0  0  0
 13 14  1  0  0  0  0
 13 15  1  0  0  0  0
 13 16  1  0  0  0  0
  9 17  1  0  0  0  0
 17 18  2  0  0  0  0
 17 19  1  0  0  0  0
 19 20  1  0  0  0  0
 20 21  1  0  0  0  0
 20 22  1  0  0  0  0
 20 23  1  0  0  0  0
  8 24  1  0  0  0  0
 24 25  2  0  0  0  0
  5 25  1  0  0  0  0
 24 26  1  0  0  0  0
 26 27  2  0  0  0  0
 27 28  1  0  0  0  0
 28 29  2  0  0  0  0
 29 30  1  0  0  0  0
 30 31  2  0  0  0  0
 26 31  1  0  0  0  0
 28 32  1  0  0  0  0
 32 33  2  0  0  0  0
 33 34  1  0  0  0  0
 34 35  1  0  0  0  0
 35 36  1  0  0  0  0
 36 37  1  0  0  0  0
 35 38  2  0  0  0  0
 32 38  1  0  0  0  0
M  END
> <ID>
CPD_5510

$$$$
CPD_5515
  Mrv1822 09091914012D          

 35 38  0  0  0  0            999 V2000
    1.3222   -3.3616    0.0000 C   0  0  0  0  0  0  0  0  0  0  0  0
    2.0367   -3.7741    0.0000 N   0  0  0  0  0  0  0  0  0  0  0  0
    2.0367   -4.5991    0.0000 C   0  0  0  0  0  0  0  0  0  0  0  0
    2.7041   -5.0840    0.0000 C   0  0  0  0  0  0  0  0  0  0  0  0
    2.4492   -5.8687    0.0000 S   0  0  0  0  0  0  0  0  0  0  0  0
    1.6242   -5.8687    0.0000 C   0  0  0  0  0  0  0  0  0  0  0  0
    1.3693   -5.0840    0.0000 C   0  0  0  0  0  0  0  0  0  0  0  0
    3.4888   -4.8291    0.0000 C   0  0  0  0  0  0  0  0  0  0  0  0
    3.6603   -4.0221    0.0000 O   0  0  0  0  0  0  0  0  0  0  0  0
    4.1019   -5.3811    0.0000 N   0  0  0  0  0  0  0  0  0  0  0  0
    4.9088   -5.2096    0.0000 N   0  0  0  0  0  0  0  0  0  0  0  0
    5.3213   -5.9241    0.0000 C   0  0  0  0  0  0  0  0  0  0  0  0
    6.1418   -6.0103    0.0000 C   0  0  0  0  0  0  0  0  0  0  0  0
    4.7693   -6.5372    0.0000 C   0  0  0  0  0  0  0  0  0  0  0  0
    4.0156   -6.2016    0.0000 C   0  0  0  0  0  0  0  0  0  0  0  0
    3.3012   -6.6141    0.0000 C   0  0  0  0  0  0  0  0  0  0  0  0
    2.7512   -3.3616    0.0000 S   0  0  0  0  0  0  0  0  0  0  0  0
    3.1637   -4.0761    0.0000 O   0  0  0  0  0  0  0  0  0  0  0  0
    2.3387   -2.6471    0.0000 O   0  0  0  0  0  0  0  0  0  0  0  0
    3.4656   -2.9491    0.0000 C   0  0  0  0  0  0  0  0  0  0  0  0
    3.4656   -2.1241    0.0000 C   0  0  0  0  0  0  0  0  0  0  0  0
    4.1801   -1.7116    0.0000 C   0  0  0  0  0  0  0  0  0  0  0  0
    4.8946   -2.1241    0.0000 C   0  0  0  0  0  0  0  0  0  0  0  0
    4.8946   -2.9491    0.0000 C   0  0  0  0  0  0  0  0  0  0  0  0
    4.1801   -3.3616    0.0000 C   0  0  0  0  0  0  0  0  0  0  0  0
    5.6091   -1.7116    0.0000 C   0  0  0  0  0  0  0  0  0  0  0  0
    5.6091   -0.8866    0.0000 C   0  0  0  0  0  0  0  0  0  0  0  0
    4.8946   -0.4741    0.0000 N   0  0  0  0  0  0  0  0  0  0  0  0
    6.3235   -0.4741    0.0000 C   0  0  0  0  0  0  0  0  0  0  0  0
    7.0380   -0.8866    0.0000 C   0  0  0  0  0  0  0  0  0  0  0  0
    7.0380   -1.7116    0.0000 C   0  0  0  0  0  0  0  0  0  0  0  0
    6.3235   -2.1241    0.0000 C   0  0  0  0  0  0  0  0  0  0  0  0
    7.7525   -0.4741    0.0000 C   0  0  0  0  0  0  0  0  0  0  0  0
    7.7525    0.3509    0.0000 O   0  0  0  0  0  0  0  0  0  0  0  0
    8.4669   -0.8866    0.0000 O   0  0  0  0  0  0  0  0  0  0  0  0
  1  2  1  0  0  0  0
  2  3  1  0  0  0  0
  3  4  2  0  0  0  0
  4  5  1  0  0  0  0
  5  6  1  0  0  0  0
  6  7  2  0  0  0  0
  3  7  1  0  0  0  0
  4  8  1  0  0  0  0
  8  9  2  0  0  0  0
  8 10  1  0  0  0  0
 10 11  1  0  0  0  0
 11 12  2  0  0  0  0
 12 13  1  0  0  0  0
 12 14  1  0  0  0  0
 14 15  2  0  0  0  0
 10 15  1  0  0  0  0
 15 16  1  0  0  0  0
  2 17  1  0  0  0  0
 17 18  2  0  0  0  0
 17 19  2  0  0  0  0
 17 20  1  0  0  0  0
 20 21  2  0  0  0  0
 21 22  1  0  0  0  0
 22 23  2  0  0  0  0
 23 24  1  0  0  0  0
 24 25  2  0  0  0  0
 20 25  1  0  0  0  0
 23 26  1  0  0  0  0
 26 27  2  0  0  0  0
 27 28  1  0  0  0  0
 27 29  1  0  0  0  0
 29 30  2  0  0  0  0
 30 31  1  0  0  0  0
 31 32  2  0  0  0  0
 26 32  1  0  0  0  0
 30 33  1  0  0  0  0
 33 34  1  0  0  0  0
 33 35  2  0  0  0  0
M  END
> <ID>
CPD_5515

$$$$
CPD_5520
  Mrv1822 09091914012D          

 29 32  0  0  0  0            999 V2000
   -0.7145   -1.2375    0.0000 C   0  0  0  0  0  0  0  0  0  0  0  0
    0.0000   -1.6500    0.0000 C   0  0  0  0  0  0  0  0  0  0  0  0
    0.7145   -1.2375    0.0000 N   0  0  0  0  0  0  0  0  0  0  0  0
    1.4289   -1.6500    0.0000 C   0  0  0  0  0  0  0  0  0  0  0  0
    2.1434   -1.2375    0.0000 C   0  0  0  0  0  0  0  0  0  0  0  0
    2.8579   -1.6500    0.0000 C   0  0  0  0  0  0  0  0  0  0  0  0
    2.8579   -2.4750    0.0000 C   0  0  0  0  0  0  0  0  0  0  0  0
    2.1434   -2.8875    0.0000 C   0  0  0  0  0  0  0  0  0  0  0  0
    1.4289   -2.4750    0.0000 C   0  0  0  0  0  0  0  0  0  0  0  0
    0.7145   -0.4125    0.0000 C   0  0  0  0  0  0  0  0  0  0  0  0
    0.0000    0.0000    0.0000 C   0  0  0  0  0  0  0  0  0  0  0  0
   -0.7846   -0.2549    0.0000 C   0  0  0  0  0  0  0  0  0  0  0  0
   -1.2695    0.4125    0.0000 N   0  0  0  0  0  0  0  0  0  0  0  0
   -0.7846    1.0799    0.0000 N   0  0  0  0  0  0  0  0  0  0  0  0
    0.0000    0.8250    0.0000 C   0  0  0  0  0  0  0  0  0  0  0  0
    0.7145    1.2375    0.0000 N   0  0  0  0  0  0  0  0  0  0  0  0
    1.4289    0.8250    0.0000 C   0  0  0  0  0  0  0  0  0  0  0  0
    1.4289    0.0000    0.0000 N   0  0  0  0  0  0  0  0  0  0  0  0
    2.1434    1.2375    0.0000 C   0  0  0  0  0  0  0  0  0  0  0  0
    2.1434    2.0625    0.0000 C   0  0  0  0  0  0  0  0  0  0  0  0
    2.8579    2.4750    0.0000 C   0  0  0  0  0  0  0  0  0  0  0  0
    3.5724    2.0625    0.0000 C   0  0  0  0  0  0  0  0  0  0  0  0
    3.5724    1.2375    0.0000 N   0  0  0  0  0  0  0  0  0  0  0  0
    2.8579    0.8250    0.0000 C   0  0  0  0  0  0  0  0  0  0  0  0
    2.8579    0.0000    0.0000 O   0  0  0  0  0  0  0  0  0  0  0  0
    3.5724   -0.4125    0.0000 C   0  0  0  0  0  0  0  0  0  0  0  0
    4.2868    0.0000    0.0000 C   0  0  0  0  0  0  0  0  0  0  0  0
    4.2868    0.8250    0.0000 C   0  0  0  0  0  0  0  0  0  0  0  0
    5.0013   -0.4125    0.0000 C   0  0  0  0  0  0  0  0  0  0  0  0
  1  2  1  0  0  0  0
  2  3  1  0  0  0  0
  3  4  1  0  0  0  0
  4  5  2  0  0  0  0
  5  6  1  0  0  0  0
  6  7  2  0  0  0  0
  7  8  1  0  0  0  0
  8  9  2  0  0  0  0
  4  9  1  0  0  0  0
  3 10  1  0  0  0  0
 10 11  2  0  0  0  0
 11 12  1  0  0  0  0
 12 13  2  0  0  0  0
 13 14  1  0  0  0  0
 14 15  1  0  0  0  0
 11 15  1  0  0  0  0
 15 16  2  0  0  0  0
 16 17  1  0  0  0  0
 17 18  2  0  0  0  0
 10 18  1  0  0  0  0
 17 19  1  0  0  0  0
 19 20  2  0  0  0  0
 20 21  1  0  0  0  0
 21 22  2  0  0  0  0
 22 23  1  0  0  0  0
 23 24  2  0  0  0  0
 19 24  1  0  0  0  0
 24 25  1  0  0  0  0
 25 26  1  0  0  0  0
 26 27  1  0  0  0  0
 27 28  1  0  0  0  0
 27 29  1  0  0  0  0
M  END
> <ID>
CPD_5520

$$$$
CPD_5525
  Mrv1822 09091914012D          

 26 29  0  0  0  0            999 V2000
    5.4957    0.6979    0.0000 C   0  0  0  0  0  0  0  0  0  0  0  0
    4.7812    1.1104    0.0000 O   0  0  0  0  0  0  0  0  0  0  0  0
    4.7812    1.9354    0.0000 C   0  0  0  0  0  0  0  0  0  0  0  0
    4.0668    2.3479    0.0000 C   0  0  0  0  0  0  0  0  0  0  0  0
    4.0668    3.1729    0.0000 C   0  0  0  0  0  0  0  0  0  0  0  0
    4.7812    3.5854    0.0000 N   0  0  0  0  0  0  0  0  0  0  0  0
    5.4957    3.1729    0.0000 C   0  0  0  0  0  0  0  0  0  0  0  0
    5.4957    2.3479    0.0000 N   0  0  0  0  0  0  0  0  0  0  0  0
    3.3523    1.9354    0.0000 C   0  0  0  0  0  0  0  0  0  0  0  0
    3.3523    1.1104    0.0000 N   0  0  0  0  0  0  0  0  0  0  0  0
    2.6378    0.6979    0.0000 C   0  0  0  0  0  0  0  0  0  0  0  0
    2.6378   -0.1271    0.0000 N   0  0  0  0  0  0  0  0  0  0  0  0
    3.3523   -0.5396    0.0000 C   0  0  0  0  0  0  0  0  0  0  0  0
    3.3523   -1.3646    0.0000 C   0  0  0  0  0  0  0  0  0  0  0  0
    4.0668   -1.7771    0.0000 C   0  0  0  0  0  0  0  0  0  0  0  0
    4.0668   -2.6021    0.0000 C   0  0  0  0  0  0  0  0  0  0  0  0
    3.3523   -3.0146    0.0000 C   0  0  0  0  0  0  0  0  0  0  0  0
    2.6378   -2.6021    0.0000 C   0  0  0  0  0  0  0  0  0  0  0  0
    2.6378   -1.7771    0.0000 C   0  0  0  0  0  0  0  0  0  0  0  0
    1.9233    1.1104    0.0000 C   0  0  0  0  0  0  0  0  0  0  0  0
    1.1387    0.8555    0.0000 C   0  0  0  0  0  0  0  0  0  0  0  0
    0.6538    1.5229    0.0000 N   0  0  0  0  0  0  0  0  0  0  0  0
    1.1387    2.1904    0.0000 N   0  0  0  0  0  0  0  0  0  0  0  0
    0.8838    2.9750    0.0000 C   0  0  0  0  0  0  0  0  0  0  0  0
    1.9233    1.9354    0.0000 C   0  0  0  0  0  0  0  0  0  0  0  0
    2.6378    2.3479    0.0000 N   0  0  0  0  0  0  0  0  0  0  0  0
  1  2  1  0  0  0  0
  2  3  1  0  0  0  0
  3  4  2  0  0  0  0
  4  5  1  0  0  0  0
  5  6  2  0  0  0  0
  6  7  1  0  0  0  0
  7  8  2  0  0  0  0
  3  8  1  0  0  0  0
  4  9  1  0  0  0  0
  9 10  2  0  0  0  0
 10 11  1  0  0  0  0
 11 12  1  0  0  0  0
 12 13  1  0  0  0  0
 13 14  1  0  0  0  0
 14 15  2  0  0  0  0
 15 16  1  0  0  0  0
 16 17  2  0  0  0  0
 17 18  1  0  0  0  0
 18 19  2  0  0  0  0
 14 19  1  0  0  0  0
 11 20  2  0  0  0  0
 20 21  1  0  0  0  0
 21 22  2  0  0  0  0
 22 23  1  0  0  0  0
 23 24  1  0  0  0  0
 23 25  1  0  0  0  0
 20 25  1  0  0  0  0
 25 26  2  0  0  0  0
  9 26  1  0  0  0  0
M  END
> <ID>
CPD_5525

$$$$
CPD_5530
  Mrv1822 09091914012D          

 30 33  0  0  0  0            999 V2000
    9.0681    1.9354    0.0000 C   0  0  0  0  0  0  0  0  0  0  0  0
    8.3536    2.3479    0.0000 C   0  0  0  0  0  0  0  0  0  0  0  0
    7.6391    1.9354    0.0000 C   0  0  0  0  0  0  0  0  0  0  0  0
    6.9246    2.3479    0.0000 N   0  0  0  0  0  0  0  0  0  0  0  0
    6.2102    1.9354    0.0000 C   0  0  0  0  0  0  0  0  0  0  0  0
    6.2102    1.1104    0.0000 O   0  0  0  0  0  0  0  0  0  0  0  0
    5.4957    2.3479    0.0000 C   0  0  0  0  0  0  0  0  0  0  0  0
    4.7812    1.9354    0.0000 C   0  0  0  0  0  0  0  0  0  0  0  0
    4.0668    2.3479    0.0000 C   0  0  0  0  0  0  0  0  0  0  0  0
    4.0668    3.1729    0.0000 C   0  0  0  0  0  0  0  0  0  0  0  0
    4.7812    3.5854    0.0000 C   0  0  0  0  0  0  0  0  0  0  0  0
    5.4957    3.1729    0.0000 C   0  0  0  0  0  0  0  0  0  0  0  0
    3.3523    1.9354    0.0000 C   0  0  0  0  0  0  0  0  0  0  0  0
    3.3523    1.1104    0.0000 N   0  0  0  0  0  0  0  0  0  0  0  0
    2.6378    0.6979    0.0000 C   0  0  0  0  0  0  0  0  0  0  0  0
    2.6378   -0.1271    0.0000 N   0  0  0  0  0  0  0  0  0  0  0  0
    1.9233   -0.5396    0.0000 C   0  0  0  0  0  0  0  0  0  0  0  0
    1.9233   -1.3646    0.0000 C   0  0  0  0  0  0  0  0  0  0  0  0
    2.6378   -1.7771    0.0000 C   0  0  0  0  0  0  0  0  0  0  0  0
    2.6378   -2.6021    0.0000 C   0  0  0  0  0  0  0  0  0  0  0  0
    1.9233   -3.0146    0.0000 C   0  0  0  0  0  0  0  0  0  0  0  0
    1.2089   -2.6021    0.0000 C   0  0  0  0  0  0  0  0  0  0  0  0
    1.2089   -1.7771    0.0000 C   0  0  0  0  0  0  0  0  0  0  0  0
    1.9233    1.1104    0.0000 C   0  0  0  0  0  0  0  0  0  0  0  0
    1.1387    0.8555    0.0000 C   0  0  0  0  0  0  0  0  0  0  0  0
    0.6538    1.5229    0.0000 N   0  0  0  0  0  0  0  0  0  0  0  0
    1.1387    2.1904    0.0000 N   0  0  0  0  0  0  0  0  0  0  0  0
    0.8838    2.9750    0.0000 C   0  0  0  0  0  0  0  0  0  0  0  0
    1.9233    1.9354    0.0000 C   0  0  0  0  0  0  0  0  0  0  0  0
    2.6378    2.3479    0.0000 N   0  0  0  0  0  0  0  0  0  0  0  0
  1  2  1  0  0  0  0
  2  3  1  0  0  0  0
  3  4  1  0  0  0  0
  4  5  1  0  0  0  0
  5  6  2  0  0  0  0
  5  7  1  0  0  0  0
  7  8  2  0  0  0  0
  8  9  1  0  0  0  0
  9 10  2  0  0  0  0
 10 11  1  0  0  0  0
 11 12  2  0  0  0  0
  7 12  1  0  0  0  0
  9 13  1  0  0  0  0
 13 14  2  0  0  0  0
 14 15  1  0  0  0  0
 15 16  1  0  0  0  0
 16 17  1  0  0  0  0
 17 18  1  0  0  0  0
 18 19  2  0  0  0  0
 19 20  1  0  0  0  0
 20 21  2  0  0  0  0
 21 22  1  0  0  0  0
 22 23  2  0  0  0  0
 18 23  1  0  0  0  0
 15 24  2  0  0  0  0
 24 25  1  0  0  0  0
 25 26  2  0  0  0  0
 26 27  1  0  0  0  0
 27 28  1  0  0  0  0
 27 29  1  0  0  0  0
 24 29  1  0  0  0  0
 29 30  2  0  0  0  0
 13 30  1  0  0  0  0
M  END
> <ID>
CPD_5530

$$$$
CPD_5535
  Mrv1822 09091914012D          

 36 41  0  0  0  0            999 V2000
    0.8838   -2.1500    0.0000 C   0  0  0  0  0  0  0  0  0  0  0  0
    1.1387   -1.3654    0.0000 N   0  0  0  0  0  0  0  0  0  0  0  0
    0.6538   -0.6979    0.0000 N   0  0  0  0  0  0  0  0  0  0  0  0
    1.1387   -0.0305    0.0000 C   0  0  0  0  0  0  0  0  0  0  0  0
    1.9233   -0.2854    0.0000 C   0  0  0  0  0  0  0  0  0  0  0  0
    2.6378    0.1271    0.0000 C   0  0  0  0  0  0  0  0  0  0  0  0
    2.6378    0.9521    0.0000 N   0  0  0  0  0  0  0  0  0  0  0  0
    1.9233    1.3646    0.0000 C   0  0  0  0  0  0  0  0  0  0  0  0
    1.9233    2.1896    0.0000 C   0  0  0  0  0  0  0  0  0  0  0  0
    1.2089    2.6021    0.0000 C   0  0  0  0  0  0  0  0  0  0  0  0
    1.2089    3.4271    0.0000 C   0  0  0  0  0  0  0  0  0  0  0  0
    1.9233    3.8396    0.0000 C   0  0  0  0  0  0  0  0  0  0  0  0
    2.6378    3.4271    0.0000 C   0  0  0  0  0  0  0  0  0  0  0  0
    2.6378    2.6021    0.0000 C   0  0  0  0  0  0  0  0  0  0  0  0
    3.3523   -0.2854    0.0000 N   0  0  0  0  0  0  0  0  0  0  0  0
    3.3523   -1.1104    0.0000 C   0  0  0  0  0  0  0  0  0  0  0  0
    2.6378   -1.5229    0.0000 N   0  0  0  0  0  0  0  0  0  0  0  0
    1.9233   -1.1104    0.0000 C   0  0  0  0  0  0  0  0  0  0  0  0
    4.0668   -1.5229    0.0000 C   0  0  0  0  0  0  0  0  0  0  0  0
    4.0668   -2.3479    0.0000 C   0  0  0  0  0  0  0  0  0  0  0  0
    4.7812   -2.7604    0.0000 C   0  0  0  0  0  0  0  0  0  0  0  0
    5.4957   -2.3479    0.0000 C   0  0  0  0  0  0  0  0  0  0  0  0
    5.4957   -1.5229    0.0000 C   0  0  0  0  0  0  0  0  0  0  0  0
    4.7812   -1.1104    0.0000 C   0  0  0  0  0  0  0  0  0  0  0  0
    4.7812   -0.2854    0.0000 C   0  0  0  0  0  0  0  0  0  0  0  0
    4.0668    0.1271    0.0000 N   0  0  0  0  0  0  0  0  0  0  0  0
    4.0668    0.9521    0.0000 C   0  0  0  0  0  0  0  0  0  0  0  0
    3.3523    1.3646    0.0000 N   0  0  0  0  0  0  0  0  0  0  0  0
    4.7812    1.3646    0.0000 N   0  0  0  0  0  0  0  0  0  0  0  0
    5.4957    0.9521    0.0000 C   0  0  0  0  0  0  0  0  0  0  0  0
    5.4957    0.1271    0.0000 C   0  0  0  0  0  0  0  0  0  0  0  0
    6.2102    1.3646    0.0000 C   0  0  0  0  0  0  0  0  0  0  0  0
    6.9638    1.0290    0.0000 C   0  0  0  0  0  0  0  0  0  0  0  0
    7.5159    1.6421    0.0000 C   0  0  0  0  0  0  0  0  0  0  0  0
    7.1034    2.3566    0.0000 C   0  0  0  0  0  0  0  0  0  0  0  0
    6.2964    2.1850    0.0000 S   0  0  0  0  0  0  0  0  0  0  0  0
  1  2  1  0  0  0  0
  2  3  1  0  0  0  0
  3  4  2  0  0  0  0
  4  5  1  0  0  0  0
  5  6  2  0  0  0  0
  6  7  1  0  0  0  0
  7  8  1  0  0  0  0
  8  9  1  0  0  0  0
  9 10  2  0  0  0  0
 10 11  1  0  0  0  0
 11 12  2  0  0  0  0
 12 13  1  0  0  0  0
 13 14  2  0  0  0  0
  9 14  1  0  0  0  0
  6 15  1  0  0  0  0
 15 16  2  0  0  0  0
 16 17  1  0  0  0  0
 17 18  2  0  0  0  0
  2 18  1  0  0  0  0
  5 18  1  0  0  0  0
 16 19  1  0  0  0  0
 19 20  2  0  0  0  0
 20 21  1  0  0  0  0
 21 22  2  0  0  0  0
 22 23  1  0  0  0  0
 23 24  2  0  0  0  0
 19 24  1  0  0  0  0
 24 25  1  0  0  0  0
 25 26  2  0  0  0  0
 26 27  1  0  0  0  0
 27 28  1  0  0  0  0
 27 29  2  0  0  0  0
 29 30  1  0  0  0  0
 30 31  2  0  0  0  0
 25 31  1  0  0  0  0
 30 32  1  0  0  0  0
 32 33  2  0  0  0  0
 33 34  1  0  0  0  0
 34 35  2  0  0  0  0
 35 36  1  0  0  0  0
 32 36  1  0  0  0  0
M  END
> <ID>
CPD_5535

$$$$
CPD_5540
  Mrv1822 09091914012D          

 29 32  0  0  0  0            999 V2000
    0.7145    1.2375    0.0000 C   0  0  0  0  0  0  0  0  0  0  0  0
    1.4289    0.8250    0.0000 O   0  0  0  0  0  0  0  0  0  0  0  0
    1.4289    0.0000    0.0000 C   0  0  0  0  0  0  0  0  0  0  0  0
    2.1434   -0.4125    0.0000 C   0  0  0  0  0  0  0  0  0  0  0  0
    2.8579    0.0000    0.0000 N   0  0  0  0  0  0  0  0  0  0  0  0
    3.5724   -0.4125    0.0000 C   0  0  0  0  0  0  0  0  0  0  0  0
    3.5724   -1.2375    0.0000 C   0  0  0  0  0  0  0  0  0  0  0  0
    2.8579   -1.6500    0.0000 C   0  0  0  0  0  0  0  0  0  0  0  0
    2.1434   -1.2375    0.0000 C   0  0  0  0  0  0  0  0  0  0  0  0
    1.4289   -1.6500    0.0000 C   0  0  0  0  0  0  0  0  0  0  0  0
    0.7145   -1.2375    0.0000 C   0  0  0  0  0  0  0  0  0  0  0  0
    0.7145   -0.4125    0.0000 C   0  0  0  0  0  0  0  0  0  0  0  0
    1.4289   -2.4750    0.0000 C   0  0  0  0  0  0  0  0  0  0  0  0
    2.1434   -2.8875    0.0000 C   0  0  0  0  0  0  0  0  0  0  0  0
    2.1434   -3.7125    0.0000 C   0  0  0  0  0  0  0  0  0  0  0  0
    2.8579   -4.1250    0.0000 Cl  0  0  0  0  0  0  0  0  0  0  0  0
    1.4289   -4.1250    0.0000 C   0  0  0  0  0  0  0  0  0  0  0  0
    0.7145   -3.7125    0.0000 C   0  0  0  0  0  0  0  0  0  0  0  0
    0.0000   -4.1250    0.0000 N   0  0  0  0  0  0  0  0  0  0  0  0
   -0.7145   -3.7125    0.0000 C   0  0  0  0  0  0  0  0  0  0  0  0
   -1.4289   -4.1250    0.0000 N   0  0  0  0  0  0  0  0  0  0  0  0
   -2.1434   -3.7125    0.0000 C   0  0  0  0  0  0  0  0  0  0  0  0
   -2.8579   -4.1250    0.0000 C   0  0  0  0  0  0  0  0  0  0  0  0
   -2.1434   -2.8875    0.0000 C   0  0  0  0  0  0  0  0  0  0  0  0
   -2.8579   -2.4750    0.0000 C   0  0  0  0  0  0  0  0  0  0  0  0
   -1.4289   -2.4750    0.0000 C   0  0  0  0  0  0  0  0  0  0  0  0
   -1.4289   -1.6500    0.0000 O   0  0  0  0  0  0  0  0  0  0  0  0
   -0.7145   -2.8875    0.0000 N   0  0  0  0  0  0  0  0  0  0  0  0
    0.7145   -2.8875    0.0000 C   0  0  0  0  0  0  0  0  0  0  0  0
  1  2  1  0  0  0  0
  2  3  1  0  0  0  0
  3  4  2  0  0  0  0
  4  5  1  0  0  0  0
  5  6  2  0  0  0  0
  6  7  1  0  0  0  0
  7  8  2  0  0  0  0
  8  9  1  0  0  0  0
  4  9  1  0  0  0  0
  9 10  2  0  0  0  0
 10 11  1  0  0  0  0
 11 12  2  0  0  0  0
  3 12  1  0  0  0  0
 10 13  1  0  0  0  0
 13 14  2  0  0  0  0
 14 15  1  0  0  0  0
 15 16  1  0  0  0  0
 15 17  2  0  0  0  0
 17 18  1  0  0  0  0
 18 19  1  0  0  0  0
 19 20  1  0  0  0  0
 20 21  2  0  0  0  0
 21 22  1  0  0  0  0
 22 23  1  0  0  0  0
 22 24  2  0  0  0  0
 24 25  1  0  0  0  0
 24 26  1  0  0  0  0
 26 27  2  0  0  0  0
 26 28  1  0  0  0  0
 20 28  1  0  0  0  0
 18 29  2  0  0  0  0
 13 29  1  0  0  0  0
M  END
> <ID>
CPD_5540

$$$$
CPD_5545
  Mrv1822 09091914012D          

 28 31  0  0  0  0            999 V2000
   -2.2501    6.8277    0.0000 C   0  0  0  0  0  0  0  0  0  0  0  0
   -1.5356    7.2402    0.0000 C   0  0  0  0  0  0  0  0  0  0  0  0
   -1.5356    8.0652    0.0000 C   0  0  0  0  0  0  0  0  0  0  0  0
   -2.2501    8.4777    0.0000 C   0  0  0  0  0  0  0  0  0  0  0  0
   -0.8212    8.4777    0.0000 C   0  0  0  0  0  0  0  0  0  0  0  0
   -0.8212    9.3027    0.0000 O   0  0  0  0  0  0  0  0  0  0  0  0
   -0.1067    8.0652    0.0000 N   0  0  0  0  0  0  0  0  0  0  0  0
   -0.1067    7.2402    0.0000 C   0  0  0  0  0  0  0  0  0  0  0  0
    0.6078    6.8277    0.0000 N   0  0  0  0  0  0  0  0  0  0  0  0
    0.6078    6.0027    0.0000 C   0  0  0  0  0  0  0  0  0  0  0  0
    1.3222    5.5902    0.0000 C   0  0  0  0  0  0  0  0  0  0  0  0
    1.3222    4.7652    0.0000 C   0  0  0  0  0  0  0  0  0  0  0  0
    0.6078    4.3527    0.0000 C   0  0  0  0  0  0  0  0  0  0  0  0
   -0.1067    4.7652    0.0000 C   0  0  0  0  0  0  0  0  0  0  0  0
   -0.8212    4.3527    0.0000 Cl  0  0  0  0  0  0  0  0  0  0  0  0
   -0.1067    5.5902    0.0000 C   0  0  0  0  0  0  0  0  0  0  0  0
    2.0367    4.3527    0.0000 C   0  0  0  0  0  0  0  0  0  0  0  0
    2.7512    4.7652    0.0000 C   0  0  0  0  0  0  0  0  0  0  0  0
    3.4656    4.3527    0.0000 N   0  0  0  0  0  0  0  0  0  0  0  0
    3.4656    3.5277    0.0000 C   0  0  0  0  0  0  0  0  0  0  0  0
    2.7512    3.1152    0.0000 C   0  0  0  0  0  0  0  0  0  0  0  0
    2.0367    3.5277    0.0000 C   0  0  0  0  0  0  0  0  0  0  0  0
    2.7512    2.2902    0.0000 C   0  0  0  0  0  0  0  0  0  0  0  0
    3.4186    1.8053    0.0000 C   0  0  0  0  0  0  0  0  0  0  0  0
    3.1637    1.0206    0.0000 C   0  0  0  0  0  0  0  0  0  0  0  0
    2.3387    1.0206    0.0000 C   0  0  0  0  0  0  0  0  0  0  0  0
    2.0837    1.8053    0.0000 N   0  0  0  0  0  0  0  0  0  0  0  0
   -0.8212    6.8277    0.0000 N   0  0  0  0  0  0  0  0  0  0  0  0
  1  2  1  0  0  0  0
  2  3  2  0  0  0  0
  3  4  1  0  0  0  0
  3  5  1  0  0  0  0
  5  6  2  0  0  0  0
  5  7  1  0  0  0  0
  7  8  1  0  0  0  0
  8  9  1  0  0  0  0
  9 10  1  0  0  0  0
 10 11  2  0  0  0  0
 11 12  1  0  0  0  0
 12 13  2  0  0  0  0
 13 14  1  0  0  0  0
 14 15  1  0  0  0  0
 14 16  2  0  0  0  0
 10 16  1  0  0  0  0
 12 17  1  0  0  0  0
 17 18  2  0  0  0  0
 18 19  1  0  0  0  0
 19 20  2  0  0  0  0
 20 21  1  0  0  0  0
 21 22  2  0  0  0  0
 17 22  1  0  0  0  0
 21 23  1  0  0  0  0
 23 24  1  0  0  0  0
 24 25  1  0  0  0  0
 25 26  1  0  0  0  0
 26 27  1  0  0  0  0
 23 27  1  0  0  0  0
  8 28  2  0  0  0  0
  2 28  1  0  0  0  0
M  END
> <ID>
CPD_5545

$$$$
CPD_5550
  Mrv1822 09091914012D          

 32 35  0  0  0  0            999 V2000
    6.3569   -1.3646    0.0000 C   0  0  0  0  0  0  0  0  0  0  0  0
    5.6424   -1.7771    0.0000 C   0  0  0  0  0  0  0  0  0  0  0  0
    5.6424   -2.6021    0.0000 C   0  0  0  0  0  0  0  0  0  0  0  0
    6.3569   -3.0146    0.0000 C   0  0  0  0  0  0  0  0  0  0  0  0
    4.9279   -3.0146    0.0000 C   0  0  0  0  0  0  0  0  0  0  0  0
    4.9279   -3.8396    0.0000 O   0  0  0  0  0  0  0  0  0  0  0  0
    4.2135   -2.6021    0.0000 N   0  0  0  0  0  0  0  0  0  0  0  0
    4.2135   -1.7771    0.0000 C   0  0  0  0  0  0  0  0  0  0  0  0
    3.4990   -1.3646    0.0000 N   0  0  0  0  0  0  0  0  0  0  0  0
    3.4990   -0.5396    0.0000 C   0  0  0  0  0  0  0  0  0  0  0  0
    2.7845   -0.1271    0.0000 C   0  0  0  0  0  0  0  0  0  0  0  0
    2.7845    0.6979    0.0000 C   0  0  0  0  0  0  0  0  0  0  0  0
    3.4990    1.1104    0.0000 C   0  0  0  0  0  0  0  0  0  0  0  0
    4.2135    0.6979    0.0000 C   0  0  0  0  0  0  0  0  0  0  0  0
    4.9279    1.1104    0.0000 Cl  0  0  0  0  0  0  0  0  0  0  0  0
    4.2135   -0.1271    0.0000 C   0  0  0  0  0  0  0  0  0  0  0  0
    2.0701    1.1104    0.0000 C   0  0  0  0  0  0  0  0  0  0  0  0
    1.3556    0.6979    0.0000 C   0  0  0  0  0  0  0  0  0  0  0  0
    0.6411    1.1104    0.0000 C   0  0  0  0  0  0  0  0  0  0  0  0
    0.6411    1.9354    0.0000 C   0  0  0  0  0  0  0  0  0  0  0  0
   -0.1435    2.1904    0.0000 O   0  0  0  0  0  0  0  0  0  0  0  0
   -0.6284    1.5229    0.0000 C   0  0  0  0  0  0  0  0  0  0  0  0
   -1.4534    1.5229    0.0000 S   0  0  0  0  0  0  0  0  0  0  0  0
   -1.8659    0.8085    0.0000 C   0  0  0  0  0  0  0  0  0  0  0  0
   -2.6909    0.8085    0.0000 C   0  0  0  0  0  0  0  0  0  0  0  0
   -3.5159    0.8085    0.0000 C   0  0  0  0  0  0  0  0  0  0  0  0
   -4.3409    0.8085    0.0000 C   0  0  0  0  0  0  0  0  0  0  0  0
   -4.7534    0.0940    0.0000 O   0  0  0  0  0  0  0  0  0  0  0  0
   -0.1435    0.8555    0.0000 N   0  0  0  0  0  0  0  0  0  0  0  0
    1.3556    2.3479    0.0000 C   0  0  0  0  0  0  0  0  0  0  0  0
    2.0701    1.9354    0.0000 C   0  0  0  0  0  0  0  0  0  0  0  0
    4.9279   -1.3646    0.0000 N   0  0  0  0  0  0  0  0  0  0  0  0
  1  2  1  0  0  0  0
  2  3  2  0  0  0  0
  3  4  1  0  0  0  0
  3  5  1  0  0  0  0
  5  6  2  0  0  0  0
  5  7  1  0  0  0  0
  7  8  1  0  0  0  0
  8  9  1  0  0  0  0
  9 10  1  0  0  0  0
 10 11  2  0  0  0  0
 11 12  1  0  0  0  0
 12 13  2  0  0  0  0
 13 14  1  0  0  0  0
 14 15  1  0  0  0  0
 14 16  2  0  0  0  0
 10 16  1  0  0  0  0
 12 17  1  0  0  0  0
 17 18  2  0  0  0  0
 18 19  1  0  0  0  0
 19 20  2  0  0  0  0
 20 21  1  0  0  0  0
 21 22  1  0  0  0  0
 22 23  1  0  0  0  0
 23 24  1  0  0  0  0
 24 25  1  0  0  0  0
 25 26  3  0  0  0  0
 26 27  1  0  0  0  0
 27 28  1  0  0  0  0
 22 29  2  0  0  0  0
 19 29  1  0  0  0  0
 20 30  1  0  0  0  0
 30 31  2  0  0  0  0
 17 31  1  0  0  0  0
  8 32  2  0  0  0  0
  2 32  1  0  0  0  0
M  END
> <ID>
CPD_5550

$$$$
CPD_5555
  Mrv1822 09091914012D          

 25 28  0  0  0  0            999 V2000
    0.2103    1.3325    0.0000 C   0  0  0  0  0  0  0  0  0  0  0  0
    0.3818    2.1394    0.0000 C   0  0  0  0  0  0  0  0  0  0  0  0
   -0.1702    2.7525    0.0000 N   0  0  0  0  0  0  0  0  0  0  0  0
    0.2423    3.4670    0.0000 N   0  0  0  0  0  0  0  0  0  0  0  0
    1.0493    3.2955    0.0000 C   0  0  0  0  0  0  0  0  0  0  0  0
    1.6624    3.8475    0.0000 O   0  0  0  0  0  0  0  0  0  0  0  0
    1.1355    2.4750    0.0000 C   0  0  0  0  0  0  0  0  0  0  0  0
    1.8500    2.0625    0.0000 C   0  0  0  0  0  0  0  0  0  0  0  0
    2.5645    2.4750    0.0000 C   0  0  0  0  0  0  0  0  0  0  0  0
    2.5645    3.3000    0.0000 C   0  0  0  0  0  0  0  0  0  0  0  0
    3.2789    3.7125    0.0000 C   0  0  0  0  0  0  0  0  0  0  0  0
    3.9934    3.3000    0.0000 C   0  0  0  0  0  0  0  0  0  0  0  0
    3.9934    2.4750    0.0000 C   0  0  0  0  0  0  0  0  0  0  0  0
    3.2789    2.0625    0.0000 C   0  0  0  0  0  0  0  0  0  0  0  0
    3.2789    1.2375    0.0000 C   0  0  0  0  0  0  0  0  0  0  0  0
    3.9934    0.8250    0.0000 C   0  0  0  0  0  0  0  0  0  0  0  0
    3.9934    0.0000    0.0000 C   0  0  0  0  0  0  0  0  0  0  0  0
    3.2789   -0.4125    0.0000 C   0  0  0  0  0  0  0  0  0  0  0  0
    2.5645    0.0000    0.0000 C   0  0  0  0  0  0  0  0  0  0  0  0
    2.5645    0.8250    0.0000 C   0  0  0  0  0  0  0  0  0  0  0  0
    1.7798    1.0799    0.0000 O   0  0  0  0  0  0  0  0  0  0  0  0
    1.2949    0.4125    0.0000 C   0  0  0  0  0  0  0  0  0  0  0  0
    0.6818    0.9645    0.0000 F   0  0  0  0  0  0  0  0  0  0  0  0
    0.6818   -0.1395    0.0000 F   0  0  0  0  0  0  0  0  0  0  0  0
    1.7798   -0.2549    0.0000 O   0  0  0  0  0  0  0  0  0  0  0  0
  1  2  1  0  0  0  0
  2  3  2  0  0  0  0
  3  4  1  0  0  0  0
  4  5  1  0  0  0  0
  5  6  1  0  0  0  0
  5  7  2  0  0  0  0
  2  7  1  0  0  0  0
  7  8  1  0  0  0  0
  8  9  1  0  0  0  0
  9 10  2  0  0  0  0
 10 11  1  0  0  0  0
 11 12  2  0  0  0  0
 12 13  1  0  0  0  0
 13 14  2  0  0  0  0
  9 14  1  0  0  0  0
 14 15  1  0  0  0  0
 15 16  2  0  0  0  0
 16 17  1  0  0  0  0
 17 18  2  0  0  0  0
 18 19  1  0  0  0  0
 19 20  2  0  0  0  0
 15 20  1  0  0  0  0
 20 21  1  0  0  0  0
 21 22  1  0  0  0  0
 22 23  1  0  0  0  0
 22 24  1  0  0  0  0
 22 25  1  0  0  0  0
 19 25  1  0  0  0  0
M  END
> <ID>
CPD_5555

$$$$
CPD_5560
  Mrv1822 09091914012D          

 26 29  0  0  0  0            999 V2000
   -2.7512   -1.7116    0.0000 C   0  0  0  0  0  0  0  0  0  0  0  0
   -2.7512   -2.5366    0.0000 C   0  0  0  0  0  0  0  0  0  0  0  0
   -2.0837   -3.0215    0.0000 N   0  0  0  0  0  0  0  0  0  0  0  0
   -2.3387   -3.8062    0.0000 N   0  0  0  0  0  0  0  0  0  0  0  0
   -3.1637   -3.8062    0.0000 C   0  0  0  0  0  0  0  0  0  0  0  0
   -3.6486   -4.4736    0.0000 O   0  0  0  0  0  0  0  0  0  0  0  0
   -3.4186   -3.0215    0.0000 C   0  0  0  0  0  0  0  0  0  0  0  0
   -4.2032   -2.7666    0.0000 C   0  0  0  0  0  0  0  0  0  0  0  0
   -4.8163   -3.3186    0.0000 C   0  0  0  0  0  0  0  0  0  0  0  0
   -4.6448   -4.1256    0.0000 C   0  0  0  0  0  0  0  0  0  0  0  0
   -5.2579   -4.6776    0.0000 C   0  0  0  0  0  0  0  0  0  0  0  0
   -6.0425   -4.4227    0.0000 C   0  0  0  0  0  0  0  0  0  0  0  0
   -6.2140   -3.6157    0.0000 C   0  0  0  0  0  0  0  0  0  0  0  0
   -5.6010   -3.0637    0.0000 C   0  0  0  0  0  0  0  0  0  0  0  0
   -5.7725   -2.2567    0.0000 C   0  0  0  0  0  0  0  0  0  0  0  0
   -6.5571   -2.0018    0.0000 C   0  0  0  0  0  0  0  0  0  0  0  0
   -6.7286   -1.1948    0.0000 C   0  0  0  0  0  0  0  0  0  0  0  0
   -6.1155   -0.6428    0.0000 C   0  0  0  0  0  0  0  0  0  0  0  0
   -5.3309   -0.8977    0.0000 C   0  0  0  0  0  0  0  0  0  0  0  0
   -5.1594   -1.7047    0.0000 C   0  0  0  0  0  0  0  0  0  0  0  0
   -7.1702   -2.5538    0.0000 C   0  0  0  0  0  0  0  0  0  0  0  0
   -6.9987   -3.3608    0.0000 N   0  0  0  0  0  0  0  0  0  0  0  0
   -7.6118   -3.9128    0.0000 C   0  0  0  0  0  0  0  0  0  0  0  0
   -8.3964   -3.6579    0.0000 C   0  0  0  0  0  0  0  0  0  0  0  0
   -8.5679   -2.8509    0.0000 C   0  0  0  0  0  0  0  0  0  0  0  0
   -7.9548   -2.2989    0.0000 C   0  0  0  0  0  0  0  0  0  0  0  0
  1  2  1  0  0  0  0
  2  3  2  0  0  0  0
  3  4  1  0  0  0  0
  4  5  1  0  0  0  0
  5  6  1  0  0  0  0
  5  7  2  0  0  0  0
  2  7  1  0  0  0  0
  7  8  1  0  0  0  0
  8  9  1  0  0  0  0
  9 10  2  0  0  0  0
 10 11  1  0  0  0  0
 11 12  2  0  0  0  0
 12 13  1  0  0  0  0
 13 14  2  0  0  0  0
  9 14  1  0  0  0  0
 14 15  1  0  0  0  0
 15 16  2  0  0  0  0
 16 17  1  0  0  0  0
 17 18  2  0  0  0  0
 18 19  1  0  0  0  0
 19 20  2  0  0  0  0
 15 20  1  0  0  0  0
 16 21  1  0  0  0  0
 21 22  2  0  0  0  0
 22 23  1  0  0  0  0
 23 24  2  0  0  0  0
 24 25  1  0  0  0  0
 25 26  2  0  0  0  0
 21 26  1  0  0  0  0
M  END
> <ID>
CPD_5560

$$$$
CPD_5565
  Mrv1822 09091914012D          

 26 28  0  0  0  0            999 V2000
    3.4656    6.8277    0.0000 C   0  0  0  0  0  0  0  0  0  0  0  0
    3.4656    6.0027    0.0000 O   0  0  0  0  0  0  0  0  0  0  0  0
    2.7512    5.5902    0.0000 C   0  0  0  0  0  0  0  0  0  0  0  0
    2.0367    6.0027    0.0000 O   0  0  0  0  0  0  0  0  0  0  0  0
    2.7512    4.7652    0.0000 C   0  0  0  0  0  0  0  0  0  0  0  0
    2.0367    4.3527    0.0000 C   0  0  0  0  0  0  0  0  0  0  0  0
    2.0367    3.5277    0.0000 C   0  0  0  0  0  0  0  0  0  0  0  0
    1.3222    3.1152    0.0000 Br  0  0  0  0  0  0  0  0  0  0  0  0
    2.7512    3.1152    0.0000 C   0  0  0  0  0  0  0  0  0  0  0  0
    2.7512    2.2902    0.0000 C   0  0  0  0  0  0  0  0  0  0  0  0
    3.4656    3.5277    0.0000 C   0  0  0  0  0  0  0  0  0  0  0  0
    3.4656    4.3527    0.0000 C   0  0  0  0  0  0  0  0  0  0  0  0
    4.1801    3.1152    0.0000 C   0  0  0  0  0  0  0  0  0  0  0  0
    4.8946    3.5277    0.0000 C   0  0  0  0  0  0  0  0  0  0  0  0
    5.6091    3.1152    0.0000 C   0  0  0  0  0  0  0  0  0  0  0  0
    5.6091    2.2902    0.0000 C   0  0  0  0  0  0  0  0  0  0  0  0
    4.8946    1.8777    0.0000 C   0  0  0  0  0  0  0  0  0  0  0  0
    4.1801    2.2902    0.0000 C   0  0  0  0  0  0  0  0  0  0  0  0
    3.4656    1.8777    0.0000 C   0  0  0  0  0  0  0  0  0  0  0  0
    3.4656    1.0527    0.0000 C   0  0  0  0  0  0  0  0  0  0  0  0
    4.1331    0.5678    0.0000 C   0  0  0  0  0  0  0  0  0  0  0  0
    4.9177    0.8227    0.0000 O   0  0  0  0  0  0  0  0  0  0  0  0
    3.8781   -0.2169    0.0000 N   0  0  0  0  0  0  0  0  0  0  0  0
    3.0531   -0.2169    0.0000 N   0  0  0  0  0  0  0  0  0  0  0  0
    2.7982    0.5678    0.0000 C   0  0  0  0  0  0  0  0  0  0  0  0
    2.0136    0.8227    0.0000 C   0  0  0  0  0  0  0  0  0  0  0  0
  1  2  1  0  0  0  0
  2  3  1  0  0  0  0
  3  4  2  0  0  0  0
  3  5  1  0  0  0  0
  5  6  2  0  0  0  0
  6  7  1  0  0  0  0
  7  8  1  0  0  0  0
  7  9  2  0  0  0  0
  9 10  1  0  0  0  0
  9 11  1  0  0  0  0
 11 12  2  0  0  0  0
  5 12  1  0  0  0  0
 11 13  1  0  0  0  0
 13 14  2  0  0  0  0
 14 15  1  0  0  0  0
 15 16  2  0  0  0  0
 16 17  1  0  0  0  0
 17 18  2  0  0  0  0
 13 18  1  0  0  0  0
 18 19  1  0  0  0  0
 19 20  1  0  0  0  0
 20 21  2  0  0  0  0
 21 22  1  0  0  0  0
 21 23  1  0  0  0  0
 23 24  1  0  0  0  0
 24 25  2  0  0  0  0
 20 25  1  0  0  0  0
 25 26  1  0  0  0  0
M  END
> <ID>
CPD_5565

$$$$
CPD_5570
  Mrv1822 09091914012D          

 31 35  0  0  0  0            999 V2000
    9.8814    5.5539    0.0000 C   0  0  0  0  0  0  0  0  0  0  0  0
    9.4689    4.8395    0.0000 C   0  0  0  0  0  0  0  0  0  0  0  0
    8.6439    4.8395    0.0000 O   0  0  0  0  0  0  0  0  0  0  0  0
    8.2314    4.1250    0.0000 C   0  0  0  0  0  0  0  0  0  0  0  0
    8.6439    3.4105    0.0000 O   0  0  0  0  0  0  0  0  0  0  0  0
    7.4064    4.1250    0.0000 C   0  0  0  0  0  0  0  0  0  0  0  0
    6.9214    3.4576    0.0000 C   0  0  0  0  0  0  0  0  0  0  0  0
    6.1368    3.7125    0.0000 N   0  0  0  0  0  0  0  0  0  0  0  0
    5.4223    3.3000    0.0000 C   0  0  0  0  0  0  0  0  0  0  0  0
    4.7079    3.7125    0.0000 C   0  0  0  0  0  0  0  0  0  0  0  0
    4.7079    4.5375    0.0000 C   0  0  0  0  0  0  0  0  0  0  0  0
    5.4223    4.9500    0.0000 C   0  0  0  0  0  0  0  0  0  0  0  0
    5.4223    5.7750    0.0000 C   0  0  0  0  0  0  0  0  0  0  0  0
    6.1368    4.5375    0.0000 C   0  0  0  0  0  0  0  0  0  0  0  0
    6.9214    4.7924    0.0000 N   0  0  0  0  0  0  0  0  0  0  0  0
    3.9934    3.3000    0.0000 C   0  0  0  0  0  0  0  0  0  0  0  0
    3.9934    2.4750    0.0000 C   0  0  0  0  0  0  0  0  0  0  0  0
    3.2789    2.0625    0.0000 C   0  0  0  0  0  0  0  0  0  0  0  0
    2.5645    2.4750    0.0000 C   0  0  0  0  0  0  0  0  0  0  0  0
    2.5645    3.3000    0.0000 C   0  0  0  0  0  0  0  0  0  0  0  0
    3.2789    3.7125    0.0000 C   0  0  0  0  0  0  0  0  0  0  0  0
    3.2789    4.5375    0.0000 F   0  0  0  0  0  0  0  0  0  0  0  0
    3.2789    1.2375    0.0000 C   0  0  0  0  0  0  0  0  0  0  0  0
    3.9934    0.8250    0.0000 N   0  0  0  0  0  0  0  0  0  0  0  0
    3.9934    0.0000    0.0000 C   0  0  0  0  0  0  0  0  0  0  0  0
    3.2789   -0.4125    0.0000 C   0  0  0  0  0  0  0  0  0  0  0  0
    2.5645    0.0000    0.0000 C   0  0  0  0  0  0  0  0  0  0  0  0
    2.5645    0.8250    0.0000 C   0  0  0  0  0  0  0  0  0  0  0  0
    1.7798    1.0799    0.0000 N   0  0  0  0  0  0  0  0  0  0  0  0
    1.2949    0.4125    0.0000 C   0  0  0  0  0  0  0  0  0  0  0  0
    1.7798   -0.2549    0.0000 N   0  0  0  0  0  0  0  0  0  0  0  0
  1  2  1  0  0  0  0
  2  3  1  0  0  0  0
  3  4  1  0  0  0  0
  4  5  2  0  0  0  0
  4  6  1  0  0  0  0
  6  7  2  0  0  0  0
  7  8  1  0  0  0  0
  8  9  1  0  0  0  0
  9 10  2  0  0  0  0
 10 11  1  0  0  0  0
 11 12  2  0  0  0  0
 12 13  1  0  0  0  0
 12 14  1  0  0  0  0
  8 14  1  0  0  0  0
 14 15  2  0  0  0  0
  6 15  1  0  0  0  0
 10 16  1  0  0  0  0
 16 17  2  0  0  0  0
 17 18  1  0  0  0  0
 18 19  2  0  0  0  0
 19 20  1  0  0  0  0
 20 21  2  0  0  0  0
 16 21  1  0  0  0  0
 21 22  1  0  0  0  0
 18 23  1  0  0  0  0
 23 24  1  0  0  0  0
 24 25  1  0  0  0  0
 25 26  1  0  0  0  0
 26 27  1  0  0  0  0
 27 28  2  0  0  0  0
 23 28  1  0  0  0  0
 28 29  1  0  0  0  0
 29 30  1  0  0  0  0
 30 31  2  0  0  0  0
 27 31  1  0  0  0  0
M  END
> <ID>
CPD_5570

$$$$
CPD_5575
  Mrv1822 09091914012D          

 30 32  0  0  0  0            999 V2000
   -1.8659   11.1761    0.0000 C   0  0  0  0  0  0  0  0  0  0  0  0
   -1.4534   10.4616    0.0000 C   0  0  0  0  0  0  0  0  0  0  0  0
   -1.8659    9.7471    0.0000 O   0  0  0  0  0  0  0  0  0  0  0  0
   -1.4534    9.0327    0.0000 C   0  0  0  0  0  0  0  0  0  0  0  0
   -0.6284    9.0327    0.0000 O   0  0  0  0  0  0  0  0  0  0  0  0
   -1.8659    8.3182    0.0000 C   0  0  0  0  0  0  0  0  0  0  0  0
   -1.5303    7.5645    0.0000 C   0  0  0  0  0  0  0  0  0  0  0  0
   -2.1434    7.0125    0.0000 N   0  0  0  0  0  0  0  0  0  0  0  0
   -2.1434    6.1875    0.0000 C   0  0  0  0  0  0  0  0  0  0  0  0
   -2.8579    5.7750    0.0000 C   0  0  0  0  0  0  0  0  0  0  0  0
   -3.5724    6.1875    0.0000 C   0  0  0  0  0  0  0  0  0  0  0  0
   -3.5724    7.0125    0.0000 C   0  0  0  0  0  0  0  0  0  0  0  0
   -4.2868    7.4250    0.0000 C   0  0  0  0  0  0  0  0  0  0  0  0
   -2.8579    7.4250    0.0000 C   0  0  0  0  0  0  0  0  0  0  0  0
   -2.6864    8.2320    0.0000 N   0  0  0  0  0  0  0  0  0  0  0  0
   -2.8579    4.9500    0.0000 C   0  0  0  0  0  0  0  0  0  0  0  0
   -2.1434    4.5375    0.0000 C   0  0  0  0  0  0  0  0  0  0  0  0
   -1.4289    4.9500    0.0000 Cl  0  0  0  0  0  0  0  0  0  0  0  0
   -2.1434    3.7125    0.0000 C   0  0  0  0  0  0  0  0  0  0  0  0
   -2.8579    3.3000    0.0000 C   0  0  0  0  0  0  0  0  0  0  0  0
   -3.5724    3.7125    0.0000 C   0  0  0  0  0  0  0  0  0  0  0  0
   -3.5724    4.5375    0.0000 C   0  0  0  0  0  0  0  0  0  0  0  0
   -2.8579    2.4750    0.0000 C   0  0  0  0  0  0  0  0  0  0  0  0
   -3.5724    2.0625    0.0000 C   0  0  0  0  0  0  0  0  0  0  0  0
   -4.2868    1.6500    0.0000 N   0  0  0  0  0  0  0  0  0  0  0  0
   -2.1434    2.0625    0.0000 N   0  0  0  0  0  0  0  0  0  0  0  0
   -2.1434    1.2375    0.0000 C   0  0  0  0  0  0  0  0  0  0  0  0
   -1.4289    0.8250    0.0000 C   0  0  0  0  0  0  0  0  0  0  0  0
   -1.4289    2.4750    0.0000 C   0  0  0  0  0  0  0  0  0  0  0  0
   -0.7145    2.0625    0.0000 C   0  0  0  0  0  0  0  0  0  0  0  0
  1  2  1  0  0  0  0
  2  3  1  0  0  0  0
  3  4  1  0  0  0  0
  4  5  2  0  0  0  0
  4  6  1  0  0  0  0
  6  7  2  0  0  0  0
  7  8  1  0  0  0  0
  8  9  1  0  0  0  0
  9 10  2  0  0  0  0
 10 11  1  0  0  0  0
 11 12  2  0  0  0  0
 12 13  1  0  0  0  0
 12 14  1  0  0  0  0
  8 14  1  0  0  0  0
 14 15  2  0  0  0  0
  6 15  1  0  0  0  0
 10 16  1  0  0  0  0
 16 17  2  0  0  0  0
 17 18  1  0  0  0  0
 17 19  1  0  0  0  0
 19 20  2  0  0  0  0
 20 21  1  0  0  0  0
 21 22  2  0  0  0  0
 16 22  1  0  0  0  0
 20 23  1  0  0  0  0
 23 24  1  0  0  0  0
 24 25  3  0  0  0  0
 23 26  1  0  0  0  0
 26 27  1  0  0  0  0
 27 28  1  0  0  0  0
 26 29  1  0  0  0  0
 29 30  1  0  0  0  0
M  END
> <ID>
CPD_5575

$$$$
CPD_5580
  Mrv1822 09091914012D          

 26 29  0  0  0  0            999 V2000
   -1.8212   -2.1269    0.0000 C   0  0  0  0  0  0  0  0  0  0  0  0
   -1.4087   -1.4124    0.0000 C   0  0  0  0  0  0  0  0  0  0  0  0
   -0.5837   -1.4124    0.0000 O   0  0  0  0  0  0  0  0  0  0  0  0
   -0.1712   -0.6979    0.0000 C   0  0  0  0  0  0  0  0  0  0  0  0
   -0.5837    0.0165    0.0000 O   0  0  0  0  0  0  0  0  0  0  0  0
    0.6538   -0.6979    0.0000 C   0  0  0  0  0  0  0  0  0  0  0  0
    1.1387   -0.0305    0.0000 C   0  0  0  0  0  0  0  0  0  0  0  0
    1.9233   -0.2854    0.0000 N   0  0  0  0  0  0  0  0  0  0  0  0
    2.6378    0.1271    0.0000 C   0  0  0  0  0  0  0  0  0  0  0  0
    3.3523   -0.2854    0.0000 C   0  0  0  0  0  0  0  0  0  0  0  0
    3.3523   -1.1104    0.0000 C   0  0  0  0  0  0  0  0  0  0  0  0
    2.6378   -1.5229    0.0000 C   0  0  0  0  0  0  0  0  0  0  0  0
    2.6378   -2.3479    0.0000 C   0  0  0  0  0  0  0  0  0  0  0  0
    1.9233   -1.1104    0.0000 C   0  0  0  0  0  0  0  0  0  0  0  0
    1.1387   -1.3654    0.0000 N   0  0  0  0  0  0  0  0  0  0  0  0
    4.0668    0.1271    0.0000 C   0  0  0  0  0  0  0  0  0  0  0  0
    4.0668    0.9521    0.0000 C   0  0  0  0  0  0  0  0  0  0  0  0
    4.7812    1.3646    0.0000 C   0  0  0  0  0  0  0  0  0  0  0  0
    5.4957    0.9521    0.0000 C   0  0  0  0  0  0  0  0  0  0  0  0
    5.4957    0.1271    0.0000 C   0  0  0  0  0  0  0  0  0  0  0  0
    4.7812   -0.2854    0.0000 C   0  0  0  0  0  0  0  0  0  0  0  0
    6.2102    1.3646    0.0000 C   0  0  0  0  0  0  0  0  0  0  0  0
    6.4237    2.1614    0.0000 C   0  0  0  0  0  0  0  0  0  0  0  0
    7.2206    1.9479    0.0000 C   0  0  0  0  0  0  0  0  0  0  0  0
    7.9351    2.3604    0.0000 N   0  0  0  0  0  0  0  0  0  0  0  0
    7.0071    1.1510    0.0000 C   0  0  0  0  0  0  0  0  0  0  0  0
  1  2  1  0  0  0  0
  2  3  1  0  0  0  0
  3  4  1  0  0  0  0
  4  5  2  0  0  0  0
  4  6  1  0  0  0  0
  6  7  2  0  0  0  0
  7  8  1  0  0  0  0
  8  9  1  0  0  0  0
  9 10  2  0  0  0  0
 10 11  1  0  0  0  0
 11 12  2  0  0  0  0
 12 13  1  0  0  0  0
 12 14  1  0  0  0  0
  8 14  1  0  0  0  0
 14 15  2  0  0  0  0
  6 15  1  0  0  0  0
 10 16  1  0  0  0  0
 16 17  2  0  0  0  0
 17 18  1  0  0  0  0
 18 19  2  0  0  0  0
 19 20  1  0  0  0  0
 20 21  2  0  0  0  0
 16 21  1  0  0  0  0
 19 22  1  0  0  0  0
 22 23  1  0  0  0  0
 23 24  1  0  0  0  0
 24 25  1  0  0  0  0
 24 26  1  0  0  0  0
 22 26  1  0  0  0  0
M  END
> <ID>
CPD_5580

$$$$
CPD_5585
  Mrv1822 09091914012D          

 27 30  0  0  0  0            999 V2000
    0.4369   -7.8761    0.0000 C   0  0  0  0  0  0  0  0  0  0  0  0
    0.0244   -7.1616    0.0000 C   0  0  0  0  0  0  0  0  0  0  0  0
    0.4369   -6.4471    0.0000 O   0  0  0  0  0  0  0  0  0  0  0  0
    0.0244   -5.7327    0.0000 C   0  0  0  0  0  0  0  0  0  0  0  0
   -0.8006   -5.7327    0.0000 O   0  0  0  0  0  0  0  0  0  0  0  0
    0.4369   -5.0182    0.0000 C   0  0  0  0  0  0  0  0  0  0  0  0
    0.1014   -4.2645    0.0000 C   0  0  0  0  0  0  0  0  0  0  0  0
    0.7145   -3.7125    0.0000 N   0  0  0  0  0  0  0  0  0  0  0  0
    0.7145   -2.8875    0.0000 C   0  0  0  0  0  0  0  0  0  0  0  0
    1.4289   -2.4750    0.0000 C   0  0  0  0  0  0  0  0  0  0  0  0
    2.1434   -2.8875    0.0000 C   0  0  0  0  0  0  0  0  0  0  0  0
    2.1434   -3.7125    0.0000 C   0  0  0  0  0  0  0  0  0  0  0  0
    2.8579   -4.1250    0.0000 C   0  0  0  0  0  0  0  0  0  0  0  0
    1.4289   -4.1250    0.0000 C   0  0  0  0  0  0  0  0  0  0  0  0
    1.2574   -4.9320    0.0000 N   0  0  0  0  0  0  0  0  0  0  0  0
    1.4289   -1.6500    0.0000 C   0  0  0  0  0  0  0  0  0  0  0  0
    0.7145   -1.2375    0.0000 C   0  0  0  0  0  0  0  0  0  0  0  0
    0.7145   -0.4125    0.0000 C   0  0  0  0  0  0  0  0  0  0  0  0
    0.0000    0.0000    0.0000 Cl  0  0  0  0  0  0  0  0  0  0  0  0
    1.4289    0.0000    0.0000 C   0  0  0  0  0  0  0  0  0  0  0  0
    2.1434   -0.4125    0.0000 C   0  0  0  0  0  0  0  0  0  0  0  0
    2.8579    0.0000    0.0000 C   0  0  0  0  0  0  0  0  0  0  0  0
    2.8579    0.8250    0.0000 O   0  0  0  0  0  0  0  0  0  0  0  0
    3.5724   -0.4125    0.0000 C   0  0  0  0  0  0  0  0  0  0  0  0
    3.5724   -1.2375    0.0000 C   0  0  0  0  0  0  0  0  0  0  0  0
    2.8579   -1.6500    0.0000 N   0  0  0  0  0  0  0  0  0  0  0  0
    2.1434   -1.2375    0.0000 C   0  0  0  0  0  0  0  0  0  0  0  0
  1  2  1  0  0  0  0
  2  3  1  0  0  0  0
  3  4  1  0  0  0  0
  4  5  2  0  0  0  0
  4  6  1  0  0  0  0
  6  7  2  0  0  0  0
  7  8  1  0  0  0  0
  8  9  1  0  0  0  0
  9 10  2  0  0  0  0
 10 11  1  0  0  0  0
 11 12  2  0  0  0  0
 12 13  1  0  0  0  0
 12 14  1  0  0  0  0
  8 14  1  0  0  0  0
 14 15  2  0  0  0  0
  6 15  1  0  0  0  0
 10 16  1  0  0  0  0
 16 17  2  0  0  0  0
 17 18  1  0  0  0  0
 18 19  1  0  0  0  0
 18 20  2  0  0  0  0
 20 21  1  0  0  0  0
 21 22  2  0  0  0  0
 22 23  1  0  0  0  0
 22 24  1  0  0  0  0
 24 25  2  0  0  0  0
 25 26  1  0  0  0  0
 26 27  2  0  0  0  0
 16 27  1  0  0  0  0
 21 27  1  0  0  0  0
M  END
> <ID>
CPD_5585

$$$$
CPD_5590
  Mrv1822 09091914012D          

 20 22  0  0  0  0            999 V2000
   -2.2044   -2.6321    0.0000 N   0  0  0  0  0  0  0  0  0  0  0  0
   -1.4292   -2.3500    0.0000 C   0  0  0  0  0  0  0  0  0  0  0  0
   -0.7972   -2.8803    0.0000 C   0  0  0  0  0  0  0  0  0  0  0  0
   -0.3847   -3.5947    0.0000 C   0  0  0  0  0  0  0  0  0  0  0  0
   -1.2097   -3.5947    0.0000 C   0  0  0  0  0  0  0  0  0  0  0  0
   -0.1652   -2.3500    0.0000 C   0  0  0  0  0  0  0  0  0  0  0  0
   -0.3085   -1.5375    0.0000 C   0  0  0  0  0  0  0  0  0  0  0  0
    0.3235   -1.0072    0.0000 C   0  0  0  0  0  0  0  0  0  0  0  0
    1.0988   -1.2894    0.0000 C   0  0  0  0  0  0  0  0  0  0  0  0
    1.2420   -2.1018    0.0000 C   0  0  0  0  0  0  0  0  0  0  0  0
    0.6101   -2.6321    0.0000 C   0  0  0  0  0  0  0  0  0  0  0  0
    0.1803   -0.1947    0.0000 C   0  0  0  0  0  0  0  0  0  0  0  0
   -0.5950    0.0874    0.0000 N   0  0  0  0  0  0  0  0  0  0  0  0
   -0.7382    0.8999    0.0000 C   0  0  0  0  0  0  0  0  0  0  0  0
   -0.1062    1.4302    0.0000 C   0  0  0  0  0  0  0  0  0  0  0  0
   -0.2495    2.2427    0.0000 Cl  0  0  0  0  0  0  0  0  0  0  0  0
    0.6690    1.1480    0.0000 C   0  0  0  0  0  0  0  0  0  0  0  0
    1.3010    1.6783    0.0000 N   0  0  0  0  0  0  0  0  0  0  0  0
    0.8123    0.3356    0.0000 C   0  0  0  0  0  0  0  0  0  0  0  0
    1.5875    0.0534    0.0000 N   0  0  0  0  0  0  0  0  0  0  0  0
  1  2  1  0  0  0  0
  2  3  1  0  0  0  0
  3  4  1  0  0  0  0
  4  5  1  0  0  0  0
  3  5  1  0  0  0  0
  3  6  1  0  0  0  0
  6  7  2  0  0  0  0
  7  8  1  0  0  0  0
  8  9  2  0  0  0  0
  9 10  1  0  0  0  0
 10 11  2  0  0  0  0
  6 11  1  0  0  0  0
  8 12  1  0  0  0  0
 12 13  2  0  0  0  0
 13 14  1  0  0  0  0
 14 15  2  0  0  0  0
 15 16  1  0  0  0  0
 15 17  1  0  0  0  0
 17 18  1  0  0  0  0
 17 19  2  0  0  0  0
 12 19  1  0  0  0  0
 19 20  1  0  0  0  0
M  END
> <ID>
CPD_5590

$$$$
CPD_5595
  Mrv1822 09091914012D          

 27 30  0  0  0  0            999 V2000
    0.3432    1.8556    0.0000 N   0  0  0  0  0  0  0  0  0  0  0  0
   -0.4321    2.1378    0.0000 C   0  0  0  0  0  0  0  0  0  0  0  0
   -1.0641    1.6075    0.0000 C   0  0  0  0  0  0  0  0  0  0  0  0
   -1.4766    0.8930    0.0000 C   0  0  0  0  0  0  0  0  0  0  0  0
   -0.6516    0.8930    0.0000 C   0  0  0  0  0  0  0  0  0  0  0  0
   -1.6961    2.1378    0.0000 C   0  0  0  0  0  0  0  0  0  0  0  0
   -2.4713    1.8556    0.0000 C   0  0  0  0  0  0  0  0  0  0  0  0
   -3.1033    2.3859    0.0000 C   0  0  0  0  0  0  0  0  0  0  0  0
   -2.9600    3.1984    0.0000 C   0  0  0  0  0  0  0  0  0  0  0  0
   -2.1848    3.4805    0.0000 C   0  0  0  0  0  0  0  0  0  0  0  0
   -1.5528    2.9502    0.0000 C   0  0  0  0  0  0  0  0  0  0  0  0
   -3.8785    2.1037    0.0000 C   0  0  0  0  0  0  0  0  0  0  0  0
   -4.0218    1.2913    0.0000 C   0  0  0  0  0  0  0  0  0  0  0  0
   -4.7970    1.0091    0.0000 C   0  0  0  0  0  0  0  0  0  0  0  0
   -5.4290    1.5394    0.0000 C   0  0  0  0  0  0  0  0  0  0  0  0
   -5.2858    2.3519    0.0000 C   0  0  0  0  0  0  0  0  0  0  0  0
   -4.5105    2.6340    0.0000 C   0  0  0  0  0  0  0  0  0  0  0  0
   -4.3673    3.4465    0.0000 Cl  0  0  0  0  0  0  0  0  0  0  0  0
   -3.3898    0.7610    0.0000 C   0  0  0  0  0  0  0  0  0  0  0  0
   -2.6146    1.0431    0.0000 C   0  0  0  0  0  0  0  0  0  0  0  0
   -1.9826    0.5128    0.0000 C   0  0  0  0  0  0  0  0  0  0  0  0
   -2.1258   -0.2996    0.0000 C   0  0  0  0  0  0  0  0  0  0  0  0
   -2.9011   -0.5818    0.0000 C   0  0  0  0  0  0  0  0  0  0  0  0
   -3.5331   -0.0515    0.0000 C   0  0  0  0  0  0  0  0  0  0  0  0
   -1.4938   -0.8299    0.0000 C   0  0  0  0  0  0  0  0  0  0  0  0
   -0.7186   -0.5477    0.0000 O   0  0  0  0  0  0  0  0  0  0  0  0
   -1.6371   -1.6424    0.0000 O   0  0  0  0  0  0  0  0  0  0  0  0
  1  2  1  0  0  0  0
  2  3  1  0  0  0  0
  3  4  1  0  0  0  0
  4  5  1  0  0  0  0
  3  5  1  0  0  0  0
  3  6  1  0  0  0  0
  6  7  2  0  0  0  0
  7  8  1  0  0  0  0
  8  9  2  0  0  0  0
  9 10  1  0  0  0  0
 10 11  2  0  0  0  0
  6 11  1  0  0  0  0
  8 12  1  0  0  0  0
 12 13  2  0  0  0  0
 13 14  1  0  0  0  0
 14 15  2  0  0  0  0
 15 16  1  0  0  0  0
 16 17  2  0  0  0  0
 12 17  1  0  0  0  0
 17 18  1  0  0  0  0
 13 19  1  0  0  0  0
 19 20  2  0  0  0  0
 20 21  1  0  0  0  0
 21 22  2  0  0  0  0
 22 23  1  0  0  0  0
 23 24  2  0  0  0  0
 19 24  1  0  0  0  0
 22 25  1  0  0  0  0
 25 26  1  0  0  0  0
 25 27  2  0  0  0  0
M  END
> <ID>
CPD_5595

$$$$
CPD_5600
  Mrv1822 09091914012D          

 33 36  0  0  0  0            999 V2000
   -1.4289   -2.4750    0.0000 C   0  0  0  0  0  0  0  0  0  0  0  0
   -1.4289   -1.6500    0.0000 O   0  0  0  0  0  0  0  0  0  0  0  0
   -0.7145   -1.2375    0.0000 C   0  0  0  0  0  0  0  0  0  0  0  0
    0.0000   -1.6500    0.0000 C   0  0  0  0  0  0  0  0  0  0  0  0
    0.7145   -1.2375    0.0000 C   0  0  0  0  0  0  0  0  0  0  0  0
    0.7145   -0.4125    0.0000 C   0  0  0  0  0  0  0  0  0  0  0  0
    1.4289   -0.0000    0.0000 C   0  0  0  0  0  0  0  0  0  0  0  0
    2.1434   -0.4125    0.0000 C   0  0  0  0  0  0  0  0  0  0  0  0
    2.1434   -1.2375    0.0000 C   0  0  0  0  0  0  0  0  0  0  0  0
    1.4289   -1.6500    0.0000 C   0  0  0  0  0  0  0  0  0  0  0  0
    0.0000   -0.0000    0.0000 C   0  0  0  0  0  0  0  0  0  0  0  0
   -0.7145   -0.4125    0.0000 C   0  0  0  0  0  0  0  0  0  0  0  0
   -1.4289    0.0000    0.0000 O   0  0  0  0  0  0  0  0  0  0  0  0
    0.0000    0.8250    0.0000 C   0  0  0  0  0  0  0  0  0  0  0  0
    0.7145    1.2375    0.0000 C   0  0  0  0  0  0  0  0  0  0  0  0
    0.7145    2.0625    0.0000 C   0  0  0  0  0  0  0  0  0  0  0  0
    1.4289    2.4750    0.0000 N   0  0  0  0  0  0  0  0  0  0  0  0
    1.4289    3.3000    0.0000 S   0  0  0  0  0  0  0  0  0  0  0  0
    2.2539    3.3000    0.0000 O   0  0  0  0  0  0  0  0  0  0  0  0
    0.6039    3.3000    0.0000 O   0  0  0  0  0  0  0  0  0  0  0  0
    1.4289    4.1250    0.0000 C   0  0  0  0  0  0  0  0  0  0  0  0
    0.7145    4.5375    0.0000 C   0  0  0  0  0  0  0  0  0  0  0  0
    0.7145    5.3625    0.0000 C   0  0  0  0  0  0  0  0  0  0  0  0
    1.4289    5.7750    0.0000 C   0  0  0  0  0  0  0  0  0  0  0  0
    1.4289    6.6000    0.0000 C   0  0  0  0  0  0  0  0  0  0  0  0
    2.1434    5.3625    0.0000 C   0  0  0  0  0  0  0  0  0  0  0  0
    2.1434    4.5375    0.0000 C   0  0  0  0  0  0  0  0  0  0  0  0
    0.0000    2.4750    0.0000 C   0  0  0  0  0  0  0  0  0  0  0  0
   -0.7145    2.0625    0.0000 C   0  0  0  0  0  0  0  0  0  0  0  0
   -0.7145    1.2375    0.0000 C   0  0  0  0  0  0  0  0  0  0  0  0
   -1.4289    0.8250    0.0000 C   0  0  0  0  0  0  0  0  0  0  0  0
   -2.1434    1.2375    0.0000 O   0  0  0  0  0  0  0  0  0  0  0  0
   -1.9139    0.1576    0.0000 O   0  0  0  0  0  0  0  0  0  0  0  0
  1  2  1  0  0  0  0
  2  3  1  0  0  0  0
  3  4  2  0  0  0  0
  4  5  1  0  0  0  0
  5  6  2  0  0  0  0
  6  7  1  0  0  0  0
  7  8  2  0  0  0  0
  8  9  1  0  0  0  0
  9 10  2  0  0  0  0
  5 10  1  0  0  0  0
  6 11  1  0  0  0  0
 11 12  2  0  0  0  0
  3 12  1  0  0  0  0
 12 13  1  0  0  0  0
 11 14  1  0  0  0  0
 14 15  2  0  0  0  0
 15 16  1  0  0  0  0
 16 17  1  0  0  0  0
 17 18  1  0  0  0  0
 18 19  2  0  0  0  0
 18 20  2  0  0  0  0
 18 21  1  0  0  0  0
 21 22  2  0  0  0  0
 22 23  1  0  0  0  0
 23 24  2  0  0  0  0
 24 25  1  0  0  0  0
 24 26  1  0  0  0  0
 26 27  2  0  0  0  0
 21 27  1  0  0  0  0
 16 28  2  0  0  0  0
 28 29  1  0  0  0  0
 29 30  2  0  0  0  0
 14 30  1  0  0  0  0
 30 31  1  0  0  0  0
 31 32  1  0  0  0  0
 31 33  2  0  0  0  0
M  END
> <ID>
CPD_5600

$$$$
CPD_5605
  Mrv1822 09091914012D          

 19 21  0  0  0  0            999 V2000
   -1.4289   -2.4750    0.0000 C   0  0  0  0  0  0  0  0  0  0  0  0
   -1.4289   -1.6500    0.0000 O   0  0  0  0  0  0  0  0  0  0  0  0
   -0.7145   -1.2375    0.0000 C   0  0  0  0  0  0  0  0  0  0  0  0
    0.0000   -1.6500    0.0000 C   0  0  0  0  0  0  0  0  0  0  0  0
    0.7145   -1.2375    0.0000 C   0  0  0  0  0  0  0  0  0  0  0  0
    0.7145   -0.4125    0.0000 C   0  0  0  0  0  0  0  0  0  0  0  0
    1.4289   -0.0000    0.0000 C   0  0  0  0  0  0  0  0  0  0  0  0
    2.1434   -0.4125    0.0000 C   0  0  0  0  0  0  0  0  0  0  0  0
    2.1434   -1.2375    0.0000 C   0  0  0  0  0  0  0  0  0  0  0  0
    1.4289   -1.6500    0.0000 C   0  0  0  0  0  0  0  0  0  0  0  0
    0.0000   -0.0000    0.0000 C   0  0  0  0  0  0  0  0  0  0  0  0
    0.0000    0.8250    0.0000 C   0  0  0  0  0  0  0  0  0  0  0  0
   -0.6674    1.3099    0.0000 C   0  0  0  0  0  0  0  0  0  0  0  0
   -0.4125    2.0945    0.0000 C   0  0  0  0  0  0  0  0  0  0  0  0
   -0.8974    2.7620    0.0000 N   0  0  0  0  0  0  0  0  0  0  0  0
    0.4125    2.0945    0.0000 C   0  0  0  0  0  0  0  0  0  0  0  0
    0.6674    1.3099    0.0000 S   0  0  0  0  0  0  0  0  0  0  0  0
   -0.7145   -0.4125    0.0000 C   0  0  0  0  0  0  0  0  0  0  0  0
   -1.4289    0.0000    0.0000 O   0  0  0  0  0  0  0  0  0  0  0  0
  1  2  1  0  0  0  0
  2  3  1  0  0  0  0
  3  4  2  0  0  0  0
  4  5  1  0  0  0  0
  5  6  2  0  0  0  0
  6  7  1  0  0  0  0
  7  8  2  0  0  0  0
  8  9  1  0  0  0  0
  9 10  2  0  0  0  0
  5 10  1  0  0  0  0
  6 11  1  0  0  0  0
 11 12  1  0  0  0  0
 12 13  2  0  0  0  0
 13 14  1  0  0  0  0
 14 15  1  0  0  0  0
 14 16  2  0  0  0  0
 16 17  1  0  0  0  0
 12 17  1  0  0  0  0
 11 18  2  0  0  0  0
  3 18  1  0  0  0  0
 18 19  1  0  0  0  0
M  END
> <ID>
CPD_5605

$$$$
CPD_5610
  Mrv1822 09091914012D          

 27 30  0  0  0  0            999 V2000
   -1.4289   -2.4750    0.0000 C   0  0  0  0  0  0  0  0  0  0  0  0
   -1.4289   -1.6500    0.0000 O   0  0  0  0  0  0  0  0  0  0  0  0
   -0.7145   -1.2375    0.0000 C   0  0  0  0  0  0  0  0  0  0  0  0
    0.0000   -1.6500    0.0000 C   0  0  0  0  0  0  0  0  0  0  0  0
    0.7145   -1.2375    0.0000 C   0  0  0  0  0  0  0  0  0  0  0  0
    0.7145   -0.4125    0.0000 C   0  0  0  0  0  0  0  0  0  0  0  0
    1.4289   -0.0000    0.0000 C   0  0  0  0  0  0  0  0  0  0  0  0
    2.1434   -0.4125    0.0000 C   0  0  0  0  0  0  0  0  0  0  0  0
    2.1434   -1.2375    0.0000 C   0  0  0  0  0  0  0  0  0  0  0  0
    1.4289   -1.6500    0.0000 C   0  0  0  0  0  0  0  0  0  0  0  0
    0.0000   -0.0000    0.0000 C   0  0  0  0  0  0  0  0  0  0  0  0
   -0.7145   -0.4125    0.0000 C   0  0  0  0  0  0  0  0  0  0  0  0
   -1.4289    0.0000    0.0000 O   0  0  0  0  0  0  0  0  0  0  0  0
    0.0000    0.8250    0.0000 C   0  0  0  0  0  0  0  0  0  0  0  0
   -0.7145    1.2375    0.0000 C   0  0  0  0  0  0  0  0  0  0  0  0
   -0.7145    2.0625    0.0000 C   0  0  0  0  0  0  0  0  0  0  0  0
    0.0000    2.4750    0.0000 C   0  0  0  0  0  0  0  0  0  0  0  0
    0.7145    2.0625    0.0000 C   0  0  0  0  0  0  0  0  0  0  0  0
    0.7145    1.2375    0.0000 C   0  0  0  0  0  0  0  0  0  0  0  0
    1.4289    2.4750    0.0000 C   0  0  0  0  0  0  0  0  0  0  0  0
    1.4289    3.3000    0.0000 C   0  0  0  0  0  0  0  0  0  0  0  0
    2.1434    3.7125    0.0000 C   0  0  0  0  0  0  0  0  0  0  0  0
    2.1434    4.5375    0.0000 O   0  0  0  0  0  0  0  0  0  0  0  0
    2.8579    3.3000    0.0000 N   0  0  0  0  0  0  0  0  0  0  0  0
    2.8579    2.4750    0.0000 C   0  0  0  0  0  0  0  0  0  0  0  0
    3.5724    2.0625    0.0000 S   0  0  0  0  0  0  0  0  0  0  0  0
    2.1434    2.0625    0.0000 N   0  0  0  0  0  0  0  0  0  0  0  0
  1  2  1  0  0  0  0
  2  3  1  0  0  0  0
  3  4  2  0  0  0  0
  4  5  1  0  0  0  0
  5  6  2  0  0  0  0
  6  7  1  0  0  0  0
  7  8  2  0  0  0  0
  8  9  1  0  0  0  0
  9 10  2  0  0  0  0
  5 10  1  0  0  0  0
  6 11  1  0  0  0  0
 11 12  2  0  0  0  0
  3 12  1  0  0  0  0
 12 13  1  0  0  0  0
 11 14  1  0  0  0  0
 14 15  2  0  0  0  0
 15 16  1  0  0  0  0
 16 17  2  0  0  0  0
 17 18  1  0  0  0  0
 18 19  2  0  0  0  0
 14 19  1  0  0  0  0
 18 20  1  0  0  0  0
 20 21  2  0  0  0  0
 21 22  1  0  0  0  0
 22 23  2  0  0  0  0
 22 24  1  0  0  0  0
 24 25  1  0  0  0  0
 25 26  2  0  0  0  0
 25 27  1  0  0  0  0
 20 27  1  0  0  0  0
M  END
> <ID>
CPD_5610

$$$$
CPD_5615
  Mrv1822 09091914012D          

 25 27  0  0  0  0            999 V2000
   -2.1434   -1.2375    0.0000 C   0  0  0  0  0  0  0  0  0  0  0  0
   -1.4289   -1.6500    0.0000 N   0  0  0  0  0  0  0  0  0  0  0  0
   -0.7145   -1.2375    0.0000 C   0  0  0  0  0  0  0  0  0  0  0  0
    0.0000   -1.6500    0.0000 N   0  0  0  0  0  0  0  0  0  0  0  0
    0.7145   -1.2375    0.0000 C   0  0  0  0  0  0  0  0  0  0  0  0
    0.7145   -0.4125    0.0000 C   0  0  0  0  0  0  0  0  0  0  0  0
    1.4289   -0.0000    0.0000 C   0  0  0  0  0  0  0  0  0  0  0  0
    2.1434   -0.4125    0.0000 C   0  0  0  0  0  0  0  0  0  0  0  0
    2.1434   -1.2375    0.0000 C   0  0  0  0  0  0  0  0  0  0  0  0
    1.4289   -1.6500    0.0000 N   0  0  0  0  0  0  0  0  0  0  0  0
    2.8579   -0.0000    0.0000 C   0  0  0  0  0  0  0  0  0  0  0  0
    2.8579    0.8250    0.0000 C   0  0  0  0  0  0  0  0  0  0  0  0
    2.1434    1.2375    0.0000 C   0  0  0  0  0  0  0  0  0  0  0  0
    1.4289    0.8250    0.0000 S   0  0  0  0  0  0  0  0  0  0  0  0
    0.7145    1.2375    0.0000 C   0  0  0  0  0  0  0  0  0  0  0  0
    0.0000    0.8250    0.0000 N   0  0  0  0  0  0  0  0  0  0  0  0
    0.7145    2.0625    0.0000 N   0  0  0  0  0  0  0  0  0  0  0  0
    3.5724    1.2375    0.0000 C   0  0  0  0  0  0  0  0  0  0  0  0
    4.2868    0.8250    0.0000 C   0  0  0  0  0  0  0  0  0  0  0  0
    4.2868   -0.0000    0.0000 C   0  0  0  0  0  0  0  0  0  0  0  0
    3.5724   -0.4125    0.0000 C   0  0  0  0  0  0  0  0  0  0  0  0
    0.0000   -0.0000    0.0000 C   0  0  0  0  0  0  0  0  0  0  0  0
   -0.7145   -0.4125    0.0000 C   0  0  0  0  0  0  0  0  0  0  0  0
   -1.4289    0.0000    0.0000 C   0  0  0  0  0  0  0  0  0  0  0  0
   -2.1434    0.4125    0.0000 N   0  0  0  0  0  0  0  0  0  0  0  0
  1  2  1  0  0  0  0
  2  3  1  0  0  0  0
  3  4  2  0  0  0  0
  4  5  1  0  0  0  0
  5  6  2  0  0  0  0
  6  7  1  0  0  0  0
  7  8  2  0  0  0  0
  8  9  1  0  0  0  0
  9 10  2  0  0  0  0
  5 10  1  0  0  0  0
  8 11  1  0  0  0  0
 11 12  2  0  0  0  0
 12 13  1  0  0  0  0
 13 14  1  0  0  0  0
 14 15  1  0  0  0  0
 15 16  1  0  0  0  0
 15 17  2  0  0  0  0
 12 18  1  0  0  0  0
 18 19  2  0  0  0  0
 19 20  1  0  0  0  0
 20 21  2  0  0  0  0
 11 21  1  0  0  0  0
  6 22  1  0  0  0  0
 22 23  2  0  0  0  0
  3 23  1  0  0  0  0
 23 24  1  0  0  0  0
 24 25  3  0  0  0  0
M  END
> <ID>
CPD_5615

$$$$
CPD_5620
  Mrv1822 09091914012D          

 28 31  0  0  0  0            999 V2000
   -2.1434   -1.2375    0.0000 C   0  0  0  0  0  0  0  0  0  0  0  0
   -1.4289   -1.6500    0.0000 N   0  0  0  0  0  0  0  0  0  0  0  0
   -0.7145   -1.2375    0.0000 C   0  0  0  0  0  0  0  0  0  0  0  0
    0.0000   -1.6500    0.0000 N   0  0  0  0  0  0  0  0  0  0  0  0
    0.7145   -1.2375    0.0000 C   0  0  0  0  0  0  0  0  0  0  0  0
    0.7145   -0.4125    0.0000 C   0  0  0  0  0  0  0  0  0  0  0  0
    1.4289   -0.0000    0.0000 C   0  0  0  0  0  0  0  0  0  0  0  0
    2.1434   -0.4125    0.0000 C   0  0  0  0  0  0  0  0  0  0  0  0
    2.1434   -1.2375    0.0000 C   0  0  0  0  0  0  0  0  0  0  0  0
    1.4289   -1.6500    0.0000 N   0  0  0  0  0  0  0  0  0  0  0  0
    2.8579   -0.0000    0.0000 C   0  0  0  0  0  0  0  0  0  0  0  0
    2.8579    0.8250    0.0000 C   0  0  0  0  0  0  0  0  0  0  0  0
    3.5724    1.2375    0.0000 C   0  0  0  0  0  0  0  0  0  0  0  0
    3.5724    2.0625    0.0000 N   0  0  0  0  0  0  0  0  0  0  0  0
    2.8579    2.4750    0.0000 C   0  0  0  0  0  0  0  0  0  0  0  0
    2.1434    2.0625    0.0000 O   0  0  0  0  0  0  0  0  0  0  0  0
    2.8579    3.3000    0.0000 C   0  0  0  0  0  0  0  0  0  0  0  0
    2.1904    3.7849    0.0000 C   0  0  0  0  0  0  0  0  0  0  0  0
    2.4454    4.5695    0.0000 C   0  0  0  0  0  0  0  0  0  0  0  0
    3.2704    4.5695    0.0000 C   0  0  0  0  0  0  0  0  0  0  0  0
    3.5253    3.7849    0.0000 N   0  0  0  0  0  0  0  0  0  0  0  0
    4.2868    0.8250    0.0000 C   0  0  0  0  0  0  0  0  0  0  0  0
    4.2868   -0.0000    0.0000 C   0  0  0  0  0  0  0  0  0  0  0  0
    3.5724   -0.4125    0.0000 C   0  0  0  0  0  0  0  0  0  0  0  0
    0.0000   -0.0000    0.0000 C   0  0  0  0  0  0  0  0  0  0  0  0
   -0.7145   -0.4125    0.0000 C   0  0  0  0  0  0  0  0  0  0  0  0
   -1.4289    0.0000    0.0000 C   0  0  0  0  0  0  0  0  0  0  0  0
   -2.1434    0.4125    0.0000 N   0  0  0  0  0  0  0  0  0  0  0  0
  1  2  1  0  0  0  0
  2  3  1  0  0  0  0
  3  4  2  0  0  0  0
  4  5  1  0  0  0  0
  5  6  2  0  0  0  0
  6  7  1  0  0  0  0
  7  8  2  0  0  0  0
  8  9  1  0  0  0  0
  9 10  2  0  0  0  0
  5 10  1  0  0  0  0
  8 11  1  0  0  0  0
 11 12  2  0  0  0  0
 12 13  1  0  0  0  0
 13 14  1  0  0  0  0
 14 15  1  0  0  0  0
 15 16  2  0  0  0  0
 15 17  1  0  0  0  0
 17 18  1  0  0  0  0
 18 19  1  0  0  0  0
 19 20  1  0  0  0  0
 20 21  1  0  0  0  0
 17 21  1  0  0  0  0
 13 22  2  0  0  0  0
 22 23  1  0  0  0  0
 23 24  2  0  0  0  0
 11 24  1  0  0  0  0
  6 25  1  0  0  0  0
 25 26  2  0  0  0  0
  3 26  1  0  0  0  0
 26 27  1  0  0  0  0
 27 28  3  0  0  0  0
M  END
> <ID>
CPD_5620

$$$$
CPD_5625
  Mrv1822 09091914012D          

 27 30  0  0  0  0            999 V2000
   -2.1434   -1.2375    0.0000 C   0  0  0  0  0  0  0  0  0  0  0  0
   -1.4289   -1.6500    0.0000 N   0  0  0  0  0  0  0  0  0  0  0  0
   -0.7145   -1.2375    0.0000 C   0  0  0  0  0  0  0  0  0  0  0  0
    0.0000   -1.6500    0.0000 N   0  0  0  0  0  0  0  0  0  0  0  0
    0.7145   -1.2375    0.0000 C   0  0  0  0  0  0  0  0  0  0  0  0
    0.7145   -0.4125    0.0000 C   0  0  0  0  0  0  0  0  0  0  0  0
    1.4289   -0.0000    0.0000 C   0  0  0  0  0  0  0  0  0  0  0  0
    2.1434   -0.4125    0.0000 C   0  0  0  0  0  0  0  0  0  0  0  0
    2.1434   -1.2375    0.0000 C   0  0  0  0  0  0  0  0  0  0  0  0
    1.4289   -1.6500    0.0000 N   0  0  0  0  0  0  0  0  0  0  0  0
    2.8579   -0.0000    0.0000 C   0  0  0  0  0  0  0  0  0  0  0  0
    2.8579    0.8250    0.0000 C   0  0  0  0  0  0  0  0  0  0  0  0
    3.5724    1.2375    0.0000 C   0  0  0  0  0  0  0  0  0  0  0  0
    4.2868    0.8250    0.0000 C   0  0  0  0  0  0  0  0  0  0  0  0
    4.2868   -0.0000    0.0000 C   0  0  0  0  0  0  0  0  0  0  0  0
    3.5724   -0.4125    0.0000 C   0  0  0  0  0  0  0  0  0  0  0  0
    5.0013   -0.4125    0.0000 C   0  0  0  0  0  0  0  0  0  0  0  0
    5.5316   -1.0445    0.0000 C   0  0  0  0  0  0  0  0  0  0  0  0
    4.7191   -1.1877    0.0000 C   0  0  0  0  0  0  0  0  0  0  0  0
    5.5316    0.2195    0.0000 C   0  0  0  0  0  0  0  0  0  0  0  0
    5.2494    0.9947    0.0000 O   0  0  0  0  0  0  0  0  0  0  0  0
    6.3441    0.0762    0.0000 O   0  0  0  0  0  0  0  0  0  0  0  0
    6.8744    0.7082    0.0000 C   0  0  0  0  0  0  0  0  0  0  0  0
    0.0000   -0.0000    0.0000 C   0  0  0  0  0  0  0  0  0  0  0  0
   -0.7145   -0.4125    0.0000 C   0  0  0  0  0  0  0  0  0  0  0  0
   -1.4289    0.0000    0.0000 C   0  0  0  0  0  0  0  0  0  0  0  0
   -2.1434    0.4125    0.0000 N   0  0  0  0  0  0  0  0  0  0  0  0
  1  2  1  0  0  0  0
  2  3  1  0  0  0  0
  3  4  2  0  0  0  0
  4  5  1  0  0  0  0
  5  6  2  0  0  0  0
  6  7  1  0  0  0  0
  7  8  2  0  0  0  0
  8  9  1  0  0  0  0
  9 10  2  0  0  0  0
  5 10  1  0  0  0  0
  8 11  1  0  0  0  0
 11 12  2  0  0  0  0
 12 13  1  0  0  0  0
 13 14  2  0  0  0  0
 14 15  1  0  0  0  0
 15 16  2  0  0  0  0
 11 16  1  0  0  0  0
 15 17  1  0  0  0  0
 17 18  1  0  0  0  0
 18 19  1  0  0  0  0
 17 19  1  0  0  0  0
 17 20  1  0  0  0  0
 20 21  2  0  0  0  0
 20 22  1  0  0  0  0
 22 23  1  0  0  0  0
  6 24  1  0  0  0  0
 24 25  2  0  0  0  0
  3 25  1  0  0  0  0
 25 26  1  0  0  0  0
 26 27  3  0  0  0  0
M  END
> <ID>
CPD_5625

$$$$
CPD_5630
  Mrv1822 09091914012D          

 23 25  0  0  0  0            999 V2000
    1.8180   -4.5631    0.0000 C   0  0  0  0  0  0  0  0  0  0  0  0
    1.2659   -3.9500    0.0000 C   0  0  0  0  0  0  0  0  0  0  0  0
    0.4589   -4.1215    0.0000 C   0  0  0  0  0  0  0  0  0  0  0  0
    1.5209   -3.1654    0.0000 C   0  0  0  0  0  0  0  0  0  0  0  0
    0.9688   -2.5523    0.0000 C   0  0  0  0  0  0  0  0  0  0  0  0
    1.2238   -1.7677    0.0000 N   0  0  0  0  0  0  0  0  0  0  0  0
    0.7388   -1.1002    0.0000 C   0  0  0  0  0  0  0  0  0  0  0  0
   -0.0862   -1.1002    0.0000 C   0  0  0  0  0  0  0  0  0  0  0  0
   -0.4987   -0.3858    0.0000 O   0  0  0  0  0  0  0  0  0  0  0  0
   -1.3237   -0.3858    0.0000 C   0  0  0  0  0  0  0  0  0  0  0  0
   -2.1487   -0.3858    0.0000 C   0  0  0  0  0  0  0  0  0  0  0  0
   -2.1487    0.4392    0.0000 N   0  0  0  0  0  0  0  0  0  0  0  0
   -1.3237    0.4392    0.0000 C   0  0  0  0  0  0  0  0  0  0  0  0
   -1.3237   -1.2108    0.0000 C   0  0  0  0  0  0  0  0  0  0  0  0
   -0.9112   -1.9252    0.0000 C   0  0  0  0  0  0  0  0  0  0  0  0
   -1.7362   -1.9252    0.0000 C   0  0  0  0  0  0  0  0  0  0  0  0
    1.2238   -0.4328    0.0000 C   0  0  0  0  0  0  0  0  0  0  0  0
    2.0084   -0.6877    0.0000 N   0  0  0  0  0  0  0  0  0  0  0  0
    2.0084   -1.5127    0.0000 C   0  0  0  0  0  0  0  0  0  0  0  0
    2.6758   -1.9977    0.0000 S   0  0  0  0  0  0  0  0  0  0  0  0
    3.3433   -2.4826    0.0000 C   0  0  0  0  0  0  0  0  0  0  0  0
    2.1909   -2.6651    0.0000 O   0  0  0  0  0  0  0  0  0  0  0  0
    3.1607   -1.3302    0.0000 O   0  0  0  0  0  0  0  0  0  0  0  0
  1  2  1  0  0  0  0
  2  3  1  0  0  0  0
  2  4  1  0  0  0  0
  4  5  1  0  0  0  0
  5  6  1  0  0  0  0
  6  7  1  0  0  0  0
  7  8  1  0  0  0  0
  8  9  1  0  0  0  0
  9 10  1  0  0  0  0
 10 11  1  0  0  0  0
 11 12  1  0  0  0  0
 12 13  1  0  0  0  0
 10 13  1  0  0  0  0
 10 14  1  0  0  0  0
 14 15  1  0  0  0  0
 15 16  1  0  0  0  0
 14 16  1  0  0  0  0
  7 17  2  0  0  0  0
 17 18  1  0  0  0  0
 18 19  2  0  0  0  0
  6 19  1  0  0  0  0
 19 20  1  0  0  0  0
 20 21  1  0  0  0  0
 20 22  2  0  0  0  0
 20 23  2  0  0  0  0
M  END
> <ID>
CPD_5630

$$$$
CPD_5635
  Mrv1822 09091914012D          

 21 23  0  0  0  0            999 V2000
    0.7145   -1.2375    0.0000 C   0  0  0  0  0  0  0  0  0  0  0  0
    0.7145   -0.4125    0.0000 C   0  0  0  0  0  0  0  0  0  0  0  0
    0.0000    0.0000    0.0000 C   0  0  0  0  0  0  0  0  0  0  0  0
   -0.7145   -0.4125    0.0000 Cl  0  0  0  0  0  0  0  0  0  0  0  0
    0.0000    0.8250    0.0000 C   0  0  0  0  0  0  0  0  0  0  0  0
    0.7145    1.2375    0.0000 C   0  0  0  0  0  0  0  0  0  0  0  0
    1.4289    0.8250    0.0000 C   0  0  0  0  0  0  0  0  0  0  0  0
    1.4289    0.0000    0.0000 C   0  0  0  0  0  0  0  0  0  0  0  0
    2.1434   -0.4125    0.0000 N   0  0  0  0  0  0  0  0  0  0  0  0
    2.8579    0.0000    0.0000 C   0  0  0  0  0  0  0  0  0  0  0  0
    2.8579    0.8250    0.0000 O   0  0  0  0  0  0  0  0  0  0  0  0
    3.5724   -0.4125    0.0000 C   0  0  0  0  0  0  0  0  0  0  0  0
    4.2868    0.0000    0.0000 C   0  0  0  0  0  0  0  0  0  0  0  0
    5.0013   -0.4125    0.0000 O   0  0  0  0  0  0  0  0  0  0  0  0
    5.7158    0.0000    0.0000 C   0  0  0  0  0  0  0  0  0  0  0  0
    6.4302    0.4125    0.0000 C   0  0  0  0  0  0  0  0  0  0  0  0
    6.8427   -0.3020    0.0000 N   0  0  0  0  0  0  0  0  0  0  0  0
    6.1283   -0.7145    0.0000 C   0  0  0  0  0  0  0  0  0  0  0  0
    5.3033    0.7145    0.0000 C   0  0  0  0  0  0  0  0  0  0  0  0
    4.5888    1.1270    0.0000 C   0  0  0  0  0  0  0  0  0  0  0  0
    5.3033    1.5395    0.0000 C   0  0  0  0  0  0  0  0  0  0  0  0
  1  2  1  0  0  0  0
  2  3  2  0  0  0  0
  3  4  1  0  0  0  0
  3  5  1  0  0  0  0
  5  6  2  0  0  0  0
  6  7  1  0  0  0  0
  7  8  2  0  0  0  0
  2  8  1  0  0  0  0
  8  9  1  0  0  0  0
  9 10  1  0  0  0  0
 10 11  2  0  0  0  0
 10 12  1  0  0  0  0
 12 13  1  0  0  0  0
 13 14  1  0  0  0  0
 14 15  1  0  0  0  0
 15 16  1  0  0  0  0
 16 17  1  0  0  0  0
 17 18  1  0  0  0  0
 15 18  1  0  0  0  0
 15 19  1  0  0  0  0
 19 20  1  0  0  0  0
 20 21  1  0  0  0  0
 19 21  1  0  0  0  0
M  END
> <ID>
CPD_5635

$$$$
CPD_5640
  Mrv1822 09091914012D          

 31 34  0  0  0  0            999 V2000
    5.9835   -5.9835    0.0000 C   0  0  0  0  0  0  0  0  0  0  0  0
    5.5710   -5.2691    0.0000 C   0  0  0  0  0  0  0  0  0  0  0  0
    5.9835   -4.5546    0.0000 O   0  0  0  0  0  0  0  0  0  0  0  0
    5.5710   -3.8401    0.0000 C   0  0  0  0  0  0  0  0  0  0  0  0
    4.7460   -3.8401    0.0000 O   0  0  0  0  0  0  0  0  0  0  0  0
    5.9835   -3.1257    0.0000 C   0  0  0  0  0  0  0  0  0  0  0  0
    5.5710   -2.4112    0.0000 C   0  0  0  0  0  0  0  0  0  0  0  0
    4.7460   -2.4112    0.0000 C   0  0  0  0  0  0  0  0  0  0  0  0
    4.3335   -1.6967    0.0000 O   0  0  0  0  0  0  0  0  0  0  0  0
    3.5085   -1.6967    0.0000 C   0  0  0  0  0  0  0  0  0  0  0  0
    2.6835   -1.6967    0.0000 C   0  0  0  0  0  0  0  0  0  0  0  0
    2.6835   -0.8717    0.0000 N   0  0  0  0  0  0  0  0  0  0  0  0
    3.5085   -0.8717    0.0000 C   0  0  0  0  0  0  0  0  0  0  0  0
    3.5085   -2.5217    0.0000 C   0  0  0  0  0  0  0  0  0  0  0  0
    3.9210   -3.2362    0.0000 C   0  0  0  0  0  0  0  0  0  0  0  0
    3.0960   -3.2362    0.0000 C   0  0  0  0  0  0  0  0  0  0  0  0
    5.9835   -1.6967    0.0000 N   0  0  0  0  0  0  0  0  0  0  0  0
    6.8085   -1.6967    0.0000 C   0  0  0  0  0  0  0  0  0  0  0  0
    7.2210   -0.9822    0.0000 O   0  0  0  0  0  0  0  0  0  0  0  0
    7.2210   -2.4112    0.0000 N   0  0  0  0  0  0  0  0  0  0  0  0
    6.8085   -3.1257    0.0000 C   0  0  0  0  0  0  0  0  0  0  0  0
    7.2210   -3.8401    0.0000 C   0  0  0  0  0  0  0  0  0  0  0  0
    8.0460   -3.8401    0.0000 C   0  0  0  0  0  0  0  0  0  0  0  0
    8.4585   -4.5546    0.0000 C   0  0  0  0  0  0  0  0  0  0  0  0
    9.2835   -4.5546    0.0000 O   0  0  0  0  0  0  0  0  0  0  0  0
    9.6960   -5.2691    0.0000 C   0  0  0  0  0  0  0  0  0  0  0  0
    8.0460   -5.2691    0.0000 C   0  0  0  0  0  0  0  0  0  0  0  0
    8.4585   -5.9835    0.0000 O   0  0  0  0  0  0  0  0  0  0  0  0
    9.2835   -5.9835    0.0000 C   0  0  0  0  0  0  0  0  0  0  0  0
    7.2210   -5.2691    0.0000 C   0  0  0  0  0  0  0  0  0  0  0  0
    6.8085   -4.5546    0.0000 C   0  0  0  0  0  0  0  0  0  0  0  0
  1  2  1  0  0  0  0
  2  3  1  0  0  0  0
  3  4  1  0  0  0  0
  4  5  2  0  0  0  0
  4  6  1  0  0  0  0
  6  7  2  0  0  0  0
  7  8  1  0  0  0  0
  8  9  1  0  0  0  0
  9 10  1  0  0  0  0
 10 11  1  0  0  0  0
 11 12  1  0  0  0  0
 12 13  1  0  0  0  0
 10 13  1  0  0  0  0
 10 14  1  0  0  0  0
 14 15  1  0  0  0  0
 15 16  1  0  0  0  0
 14 16  1  0  0  0  0
  7 17  1  0  0  0  0
 17 18  1  0  0  0  0
 18 19  2  0  0  0  0
 18 20  1  0  0  0  0
 20 21  1  0  0  0  0
  6 21  1  0  0  0  0
 21 22  1  0  0  0  0
 22 23  2  0  0  0  0
 23 24  1  0  0  0  0
 24 25  1  0  0  0  0
 25 26  1  0  0  0  0
 24 27  2  0  0  0  0
 27 28  1  0  0  0  0
 28 29  1  0  0  0  0
 27 30  1  0  0  0  0
 30 31  2  0  0  0  0
 22 31  1  0  0  0  0
M  END
> <ID>
CPD_5640

$$$$
CPD_5645
  Mrv1822 09091914012D          

 22 24  0  0  0  0            999 V2000
   -0.7145   -2.0625    0.0000 C   0  0  0  0  0  0  0  0  0  0  0  0
   -0.7145   -2.8875    0.0000 C   0  0  0  0  0  0  0  0  0  0  0  0
   -1.4289   -3.3000    0.0000 C   0  0  0  0  0  0  0  0  0  0  0  0
   -2.1434   -2.8875    0.0000 N   0  0  0  0  0  0  0  0  0  0  0  0
   -2.8971   -3.2231    0.0000 C   0  0  0  0  0  0  0  0  0  0  0  0
   -3.0686   -4.0300    0.0000 C   0  0  0  0  0  0  0  0  0  0  0  0
   -3.4491   -2.6100    0.0000 N   0  0  0  0  0  0  0  0  0  0  0  0
   -3.0366   -1.8955    0.0000 C   0  0  0  0  0  0  0  0  0  0  0  0
   -2.2296   -2.0670    0.0000 C   0  0  0  0  0  0  0  0  0  0  0  0
   -1.6166   -1.5150    0.0000 N   0  0  0  0  0  0  0  0  0  0  0  0
    0.0000   -3.3000    0.0000 O   0  0  0  0  0  0  0  0  0  0  0  0
    0.7145   -2.8875    0.0000 C   0  0  0  0  0  0  0  0  0  0  0  0
    1.4289   -3.3000    0.0000 C   0  0  0  0  0  0  0  0  0  0  0  0
    2.1434   -2.8875    0.0000 C   0  0  0  0  0  0  0  0  0  0  0  0
    2.1434   -2.0625    0.0000 C   0  0  0  0  0  0  0  0  0  0  0  0
    2.8579   -1.6500    0.0000 C   0  0  0  0  0  0  0  0  0  0  0  0
    3.5724   -2.0625    0.0000 C   0  0  0  0  0  0  0  0  0  0  0  0
    3.5724   -2.8875    0.0000 C   0  0  0  0  0  0  0  0  0  0  0  0
    2.8579   -3.3000    0.0000 C   0  0  0  0  0  0  0  0  0  0  0  0
    2.8579   -4.1250    0.0000 C   0  0  0  0  0  0  0  0  0  0  0  0
    2.1434   -4.5375    0.0000 C   0  0  0  0  0  0  0  0  0  0  0  0
    1.4289   -4.1250    0.0000 C   0  0  0  0  0  0  0  0  0  0  0  0
  1  2  1  0  0  0  0
  2  3  1  0  0  0  0
  3  4  1  0  0  0  0
  4  5  1  0  0  0  0
  5  6  1  0  0  0  0
  5  7  2  0  0  0  0
  7  8  1  0  0  0  0
  8  9  2  0  0  0  0
  4  9  1  0  0  0  0
  9 10  1  0  0  0  0
  2 11  1  0  0  0  0
 11 12  1  0  0  0  0
 12 13  1  0  0  0  0
 13 14  2  0  0  0  0
 14 15  1  0  0  0  0
 15 16  2  0  0  0  0
 16 17  1  0  0  0  0
 17 18  2  0  0  0  0
 18 19  1  0  0  0  0
 14 19  1  0  0  0  0
 19 20  2  0  0  0  0
 20 21  1  0  0  0  0
 21 22  2  0  0  0  0
 13 22  1  0  0  0  0
M  END
> <ID>
CPD_5645

$$$$
CPD_5650
  Mrv1822 09091914012D          

 25 27  0  0  0  0            999 V2000
   -3.5724   -0.4125    0.0000 C   0  0  0  0  0  0  0  0  0  0  0  0
   -3.5724   -1.2375    0.0000 C   0  0  0  0  0  0  0  0  0  0  0  0
   -4.2868   -1.6500    0.0000 C   0  0  0  0  0  0  0  0  0  0  0  0
   -5.0013   -1.2375    0.0000 N   0  0  0  0  0  0  0  0  0  0  0  0
   -5.7550   -1.5731    0.0000 C   0  0  0  0  0  0  0  0  0  0  0  0
   -5.9265   -2.3800    0.0000 N   0  0  0  0  0  0  0  0  0  0  0  0
   -6.3070   -0.9600    0.0000 C   0  0  0  0  0  0  0  0  0  0  0  0
   -5.8945   -0.2455    0.0000 N   0  0  0  0  0  0  0  0  0  0  0  0
   -5.0875   -0.4170    0.0000 C   0  0  0  0  0  0  0  0  0  0  0  0
   -4.4744    0.1350    0.0000 C   0  0  0  0  0  0  0  0  0  0  0  0
   -2.8579   -1.6500    0.0000 O   0  0  0  0  0  0  0  0  0  0  0  0
   -2.1434   -1.2375    0.0000 C   0  0  0  0  0  0  0  0  0  0  0  0
   -1.4289   -1.6500    0.0000 C   0  0  0  0  0  0  0  0  0  0  0  0
   -0.7145   -1.2375    0.0000 N   0  0  0  0  0  0  0  0  0  0  0  0
    0.0000   -1.6500    0.0000 C   0  0  0  0  0  0  0  0  0  0  0  0
    0.0000   -2.4750    0.0000 O   0  0  0  0  0  0  0  0  0  0  0  0
    0.7145   -1.2375    0.0000 N   0  0  0  0  0  0  0  0  0  0  0  0
    0.7145   -0.4125    0.0000 C   0  0  0  0  0  0  0  0  0  0  0  0
    0.0000   -0.0000    0.0000 C   0  0  0  0  0  0  0  0  0  0  0  0
    0.0000    0.8250    0.0000 C   0  0  0  0  0  0  0  0  0  0  0  0
    0.7145    1.2375    0.0000 C   0  0  0  0  0  0  0  0  0  0  0  0
    1.4289    0.8250    0.0000 C   0  0  0  0  0  0  0  0  0  0  0  0
    1.4289   -0.0000    0.0000 C   0  0  0  0  0  0  0  0  0  0  0  0
   -0.7145   -0.4125    0.0000 C   0  0  0  0  0  0  0  0  0  0  0  0
   -1.4289   -0.0000    0.0000 O   0  0  0  0  0  0  0  0  0  0  0  0
  1  2  1  0  0  0  0
  2  3  1  0  0  0  0
  3  4  1  0  0  0  0
  4  5  1  0  0  0  0
  5  6  1  0  0  0  0
  5  7  2  0  0  0  0
  7  8  1  0  0  0  0
  8  9  2  0  0  0  0
  4  9  1  0  0  0  0
  9 10  1  0  0  0  0
  2 11  1  0  0  0  0
 11 12  1  0  0  0  0
 12 13  1  0  0  0  0
 13 14  1  0  0  0  0
 14 15  1  0  0  0  0
 15 16  2  0  0  0  0
 15 17  1  0  0  0  0
 17 18  1  0  0  0  0
 18 19  2  0  0  0  0
 19 20  1  0  0  0  0
 20 21  2  0  0  0  0
 21 22  1  0  0  0  0
 22 23  2  0  0  0  0
 18 23  1  0  0  0  0
 19 24  1  0  0  0  0
 14 24  1  0  0  0  0
 24 25  2  0  0  0  0
M  END
> <ID>
CPD_5650

$$$$
CPD_5655
  Mrv1822 09091914012D          

 25 27  0  0  0  0            999 V2000
    0.0000   -3.3000    0.0000 C   0  0  0  0  0  0  0  0  0  0  0  0
    0.0000   -2.4750    0.0000 C   0  0  0  0  0  0  0  0  0  0  0  0
   -0.7145   -2.0625    0.0000 C   0  0  0  0  0  0  0  0  0  0  0  0
   -1.4289   -2.4750    0.0000 N   0  0  0  0  0  0  0  0  0  0  0  0
   -1.5152   -3.2955    0.0000 C   0  0  0  0  0  0  0  0  0  0  0  0
   -0.9021   -3.8475    0.0000 C   0  0  0  0  0  0  0  0  0  0  0  0
   -2.3221   -3.4670    0.0000 N   0  0  0  0  0  0  0  0  0  0  0  0
   -2.7346   -2.7525    0.0000 C   0  0  0  0  0  0  0  0  0  0  0  0
   -2.1826   -2.1394    0.0000 C   0  0  0  0  0  0  0  0  0  0  0  0
   -2.3541   -1.3325    0.0000 N   0  0  0  0  0  0  0  0  0  0  0  0
    0.7145   -2.0625    0.0000 O   0  0  0  0  0  0  0  0  0  0  0  0
    1.4289   -2.4750    0.0000 C   0  0  0  0  0  0  0  0  0  0  0  0
    2.1434   -2.0625    0.0000 C   0  0  0  0  0  0  0  0  0  0  0  0
    2.1434   -1.2375    0.0000 C   0  0  0  0  0  0  0  0  0  0  0  0
    2.8579   -0.8250    0.0000 C   0  0  0  0  0  0  0  0  0  0  0  0
    3.5724   -1.2375    0.0000 C   0  0  0  0  0  0  0  0  0  0  0  0
    3.5724   -2.0625    0.0000 C   0  0  0  0  0  0  0  0  0  0  0  0
    2.8579   -2.4750    0.0000 C   0  0  0  0  0  0  0  0  0  0  0  0
    2.8579   -3.3000    0.0000 N   0  0  0  0  0  0  0  0  0  0  0  0
    3.5253   -3.7849    0.0000 N   0  0  0  0  0  0  0  0  0  0  0  0
    3.2704   -4.5695    0.0000 C   0  0  0  0  0  0  0  0  0  0  0  0
    3.7553   -5.2370    0.0000 C   0  0  0  0  0  0  0  0  0  0  0  0
    2.4454   -4.5695    0.0000 C   0  0  0  0  0  0  0  0  0  0  0  0
    2.1904   -3.7849    0.0000 C   0  0  0  0  0  0  0  0  0  0  0  0
    1.4058   -3.5300    0.0000 C   0  0  0  0  0  0  0  0  0  0  0  0
  1  2  1  0  0  0  0
  2  3  1  0  0  0  0
  3  4  1  0  0  0  0
  4  5  1  0  0  0  0
  5  6  1  0  0  0  0
  5  7  2  0  0  0  0
  7  8  1  0  0  0  0
  8  9  2  0  0  0  0
  4  9  1  0  0  0  0
  9 10  1  0  0  0  0
  2 11  1  0  0  0  0
 11 12  1  0  0  0  0
 12 13  1  0  0  0  0
 13 14  2  0  0  0  0
 14 15  1  0  0  0  0
 15 16  2  0  0  0  0
 16 17  1  0  0  0  0
 17 18  2  0  0  0  0
 13 18  1  0  0  0  0
 18 19  1  0  0  0  0
 19 20  1  0  0  0  0
 20 21  2  0  0  0  0
 21 22  1  0  0  0  0
 21 23  1  0  0  0  0
 23 24  2  0  0  0  0
 19 24  1  0  0  0  0
 24 25  1  0  0  0  0
M  END
> <ID>
CPD_5655

$$$$
CPD_5660
  Mrv1822 09091914012D          

 34 38  0  0  0  0            999 V2000
    0.0000    2.4750    0.0000 O   0  0  0  0  0  0  0  0  0  0  0  0
    0.7145    2.0625    0.0000 C   0  0  0  0  0  0  0  0  0  0  0  0
    0.7145    1.2375    0.0000 C   0  0  0  0  0  0  0  0  0  0  0  0
    0.0000    0.8250    0.0000 C   0  0  0  0  0  0  0  0  0  0  0  0
    0.0000   -0.0000    0.0000 C   0  0  0  0  0  0  0  0  0  0  0  0
   -0.7145   -0.4125    0.0000 C   0  0  0  0  0  0  0  0  0  0  0  0
   -0.7145   -1.2375    0.0000 N   0  0  0  0  0  0  0  0  0  0  0  0
    0.0000   -1.6500    0.0000 C   0  0  0  0  0  0  0  0  0  0  0  0
    0.7145   -1.2375    0.0000 C   0  0  0  0  0  0  0  0  0  0  0  0
    0.7145   -0.4125    0.0000 C   0  0  0  0  0  0  0  0  0  0  0  0
    1.4289   -0.0000    0.0000 C   0  0  0  0  0  0  0  0  0  0  0  0
    2.1434   -0.4125    0.0000 C   0  0  0  0  0  0  0  0  0  0  0  0
    2.1434   -1.2375    0.0000 C   0  0  0  0  0  0  0  0  0  0  0  0
    1.4289   -1.6500    0.0000 C   0  0  0  0  0  0  0  0  0  0  0  0
    1.4289    2.4750    0.0000 N   0  0  0  0  0  0  0  0  0  0  0  0
    1.4289    3.3000    0.0000 C   0  0  0  0  0  0  0  0  0  0  0  0
    0.7615    3.7849    0.0000 C   0  0  0  0  0  0  0  0  0  0  0  0
    1.0164    4.5695    0.0000 C   0  0  0  0  0  0  0  0  0  0  0  0
    0.5315    5.2370    0.0000 O   0  0  0  0  0  0  0  0  0  0  0  0
    1.8414    4.5695    0.0000 N   0  0  0  0  0  0  0  0  0  0  0  0
    2.0964    3.7849    0.0000 C   0  0  0  0  0  0  0  0  0  0  0  0
    2.8810    3.5300    0.0000 O   0  0  0  0  0  0  0  0  0  0  0  0
    2.3264    5.2370    0.0000 C   0  0  0  0  0  0  0  0  0  0  0  0
    1.9908    5.9907    0.0000 C   0  0  0  0  0  0  0  0  0  0  0  0
    2.4757    6.6581    0.0000 C   0  0  0  0  0  0  0  0  0  0  0  0
    3.2962    6.5719    0.0000 C   0  0  0  0  0  0  0  0  0  0  0  0
    3.6318    5.8182    0.0000 C   0  0  0  0  0  0  0  0  0  0  0  0
    3.1468    5.1507    0.0000 C   0  0  0  0  0  0  0  0  0  0  0  0
    2.1434    2.0625    0.0000 C   0  0  0  0  0  0  0  0  0  0  0  0
    2.8579    2.4750    0.0000 C   0  0  0  0  0  0  0  0  0  0  0  0
    3.5724    2.0625    0.0000 C   0  0  0  0  0  0  0  0  0  0  0  0
    3.5724    1.2375    0.0000 C   0  0  0  0  0  0  0  0  0  0  0  0
    2.8579    0.8250    0.0000 C   0  0  0  0  0  0  0  0  0  0  0  0
    2.1434    1.2375    0.0000 C   0  0  0  0  0  0  0  0  0  0  0  0
  1  2  2  0  0  0  0
  2  3  1  0  0  0  0
  3  4  1  0  0  0  0
  4  5  1  0  0  0  0
  5  6  2  0  0  0  0
  6  7  1  0  0  0  0
  7  8  2  0  0  0  0
  8  9  1  0  0  0  0
  9 10  2  0  0  0  0
  5 10  1  0  0  0  0
 10 11  1  0  0  0  0
 11 12  2  0  0  0  0
 12 13  1  0  0  0  0
 13 14  2  0  0  0  0
  9 14  1  0  0  0  0
  2 15  1  0  0  0  0
 15 16  1  0  0  0  0
 16 17  1  0  0  0  0
 17 18  1  0  0  0  0
 18 19  2  0  0  0  0
 18 20  1  0  0  0  0
 20 21  1  0  0  0  0
 16 21  1  0  0  0  0
 21 22  2  0  0  0  0
 20 23  1  0  0  0  0
 23 24  2  0  0  0  0
 24 25  1  0  0  0  0
 25 26  2  0  0  0  0
 26 27  1  0  0  0  0
 27 28  2  0  0  0  0
 23 28  1  0  0  0  0
 15 29  1  0  0  0  0
 29 30  1  0  0  0  0
 30 31  1  0  0  0  0
 31 32  1  0  0  0  0
 32 33  1  0  0  0  0
 33 34  1  0  0  0  0
 29 34  1  0  0  0  0
M  END
> <ID>
CPD_5660

$$$$
CPD_5665
  Mrv1822 09091914012D          

 33 36  0  0  0  0            999 V2000
   -0.7145    7.0125    0.0000 C   0  0  0  0  0  0  0  0  0  0  0  0
   -0.7145    6.1875    0.0000 C   0  0  0  0  0  0  0  0  0  0  0  0
   -0.0000    5.7750    0.0000 C   0  0  0  0  0  0  0  0  0  0  0  0
   -0.0000    4.9500    0.0000 C   0  0  0  0  0  0  0  0  0  0  0  0
    0.7145    4.5375    0.0000 C   0  0  0  0  0  0  0  0  0  0  0  0
   -0.7145    4.5375    0.0000 C   0  0  0  0  0  0  0  0  0  0  0  0
   -1.4289    4.9500    0.0000 C   0  0  0  0  0  0  0  0  0  0  0  0
   -2.1434    4.5375    0.0000 C   0  0  0  0  0  0  0  0  0  0  0  0
   -1.4289    5.7750    0.0000 C   0  0  0  0  0  0  0  0  0  0  0  0
   -0.7145    3.7125    0.0000 S   0  0  0  0  0  0  0  0  0  0  0  0
   -1.5395    3.7125    0.0000 O   0  0  0  0  0  0  0  0  0  0  0  0
    0.1105    3.7125    0.0000 O   0  0  0  0  0  0  0  0  0  0  0  0
   -0.7145    2.8875    0.0000 N   0  0  0  0  0  0  0  0  0  0  0  0
   -1.4289    2.4750    0.0000 C   0  0  0  0  0  0  0  0  0  0  0  0
   -1.4289    1.6500    0.0000 C   0  0  0  0  0  0  0  0  0  0  0  0
   -2.1434    1.2375    0.0000 C   0  0  0  0  0  0  0  0  0  0  0  0
   -2.8579    1.6500    0.0000 C   0  0  0  0  0  0  0  0  0  0  0  0
   -2.8579    2.4750    0.0000 C   0  0  0  0  0  0  0  0  0  0  0  0
   -2.1434    2.8875    0.0000 C   0  0  0  0  0  0  0  0  0  0  0  0
   -0.7145    1.2375    0.0000 C   0  0  0  0  0  0  0  0  0  0  0  0
   -1.1270    0.5230    0.0000 F   0  0  0  0  0  0  0  0  0  0  0  0
   -0.3020    1.9520    0.0000 F   0  0  0  0  0  0  0  0  0  0  0  0
    0.0000    0.8250    0.0000 C   0  0  0  0  0  0  0  0  0  0  0  0
    0.0000   -0.0000    0.0000 C   0  0  0  0  0  0  0  0  0  0  0  0
   -0.7145   -0.4125    0.0000 C   0  0  0  0  0  0  0  0  0  0  0  0
   -0.7145   -1.2375    0.0000 N   0  0  0  0  0  0  0  0  0  0  0  0
    0.0000   -1.6500    0.0000 C   0  0  0  0  0  0  0  0  0  0  0  0
    0.7145   -1.2375    0.0000 C   0  0  0  0  0  0  0  0  0  0  0  0
    0.7145   -0.4125    0.0000 C   0  0  0  0  0  0  0  0  0  0  0  0
    1.4289   -0.0000    0.0000 C   0  0  0  0  0  0  0  0  0  0  0  0
    2.1434   -0.4125    0.0000 C   0  0  0  0  0  0  0  0  0  0  0  0
    2.1434   -1.2375    0.0000 C   0  0  0  0  0  0  0  0  0  0  0  0
    1.4289   -1.6500    0.0000 C   0  0  0  0  0  0  0  0  0  0  0  0
  1  2  1  0  0  0  0
  2  3  2  0  0  0  0
  3  4  1  0  0  0  0
  4  5  1  0  0  0  0
  4  6  2  0  0  0  0
  6  7  1  0  0  0  0
  7  8  1  0  0  0  0
  7  9  2  0  0  0  0
  2  9  1  0  0  0  0
  6 10  1  0  0  0  0
 10 11  2  0  0  0  0
 10 12  2  0  0  0  0
 10 13  1  0  0  0  0
 13 14  1  0  0  0  0
 14 15  2  0  0  0  0
 15 16  1  0  0  0  0
 16 17  2  0  0  0  0
 17 18  1  0  0  0  0
 18 19  2  0  0  0  0
 14 19  1  0  0  0  0
 15 20  1  0  0  0  0
 20 21  1  0  0  0  0
 20 22  1  0  0  0  0
 20 23  1  0  0  0  0
 23 24  1  0  0  0  0
 24 25  2  0  0  0  0
 25 26  1  0  0  0  0
 26 27  2  0  0  0  0
 27 28  1  0  0  0  0
 28 29  2  0  0  0  0
 24 29  1  0  0  0  0
 29 30  1  0  0  0  0
 30 31  2  0  0  0  0
 31 32  1  0  0  0  0
 32 33  2  0  0  0  0
 28 33  1  0  0  0  0
M  END
> <ID>
CPD_5665

$$$$
CPD_5670
  Mrv1822 09091914012D          

 36 39  0  0  0  0            999 V2000
    0.7145    6.1875    0.0000 C   0  0  0  0  0  0  0  0  0  0  0  0
    1.4289    6.6000    0.0000 N   0  0  0  0  0  0  0  0  0  0  0  0
    1.4289    7.4250    0.0000 C   0  0  0  0  0  0  0  0  0  0  0  0
    0.7145    7.8375    0.0000 C   0  0  0  0  0  0  0  0  0  0  0  0
    0.7145    8.6625    0.0000 O   0  0  0  0  0  0  0  0  0  0  0  0
    0.0000    7.4250    0.0000 O   0  0  0  0  0  0  0  0  0  0  0  0
    2.1434    6.1875    0.0000 C   0  0  0  0  0  0  0  0  0  0  0  0
    2.1434    5.3625    0.0000 C   0  0  0  0  0  0  0  0  0  0  0  0
    2.8579    4.9500    0.0000 C   0  0  0  0  0  0  0  0  0  0  0  0
    2.8579    4.1250    0.0000 C   0  0  0  0  0  0  0  0  0  0  0  0
    2.1434    3.7125    0.0000 C   0  0  0  0  0  0  0  0  0  0  0  0
    1.4289    4.1250    0.0000 C   0  0  0  0  0  0  0  0  0  0  0  0
    1.4289    4.9500    0.0000 C   0  0  0  0  0  0  0  0  0  0  0  0
    2.1434    2.8875    0.0000 C   0  0  0  0  0  0  0  0  0  0  0  0
    2.8579    2.4750    0.0000 N   0  0  0  0  0  0  0  0  0  0  0  0
    2.8579    1.6500    0.0000 C   0  0  0  0  0  0  0  0  0  0  0  0
    2.1434    1.2375    0.0000 C   0  0  0  0  0  0  0  0  0  0  0  0
    1.4289    1.6500    0.0000 C   0  0  0  0  0  0  0  0  0  0  0  0
    1.4289    2.4750    0.0000 C   0  0  0  0  0  0  0  0  0  0  0  0
    0.7145    1.2375    0.0000 C   0  0  0  0  0  0  0  0  0  0  0  0
    0.3020    1.9520    0.0000 F   0  0  0  0  0  0  0  0  0  0  0  0
    1.1270    0.5230    0.0000 F   0  0  0  0  0  0  0  0  0  0  0  0
    0.0000    0.8250    0.0000 C   0  0  0  0  0  0  0  0  0  0  0  0
    0.0000   -0.0000    0.0000 C   0  0  0  0  0  0  0  0  0  0  0  0
   -0.7145   -0.4125    0.0000 C   0  0  0  0  0  0  0  0  0  0  0  0
   -0.7145   -1.2375    0.0000 N   0  0  0  0  0  0  0  0  0  0  0  0
    0.0000   -1.6500    0.0000 C   0  0  0  0  0  0  0  0  0  0  0  0
    0.7145   -1.2375    0.0000 C   0  0  0  0  0  0  0  0  0  0  0  0
    0.7145   -0.4125    0.0000 C   0  0  0  0  0  0  0  0  0  0  0  0
    1.4289   -0.0000    0.0000 C   0  0  0  0  0  0  0  0  0  0  0  0
    2.1434   -0.4125    0.0000 C   0  0  0  0  0  0  0  0  0  0  0  0
    2.1434   -1.2375    0.0000 C   0  0  0  0  0  0  0  0  0  0  0  0
    1.4289   -1.6500    0.0000 C   0  0  0  0  0  0  0  0  0  0  0  0
    3.5724    1.2375    0.0000 N   0  0  0  0  0  0  0  0  0  0  0  0
    3.5724    0.4125    0.0000 C   0  0  0  0  0  0  0  0  0  0  0  0
    4.2868    1.6500    0.0000 C   0  0  0  0  0  0  0  0  0  0  0  0
  1  2  1  0  0  0  0
  2  3  1  0  0  0  0
  3  4  1  0  0  0  0
  4  5  1  0  0  0  0
  4  6  2  0  0  0  0
  2  7  1  0  0  0  0
  7  8  1  0  0  0  0
  8  9  2  0  0  0  0
  9 10  1  0  0  0  0
 10 11  2  0  0  0  0
 11 12  1  0  0  0  0
 12 13  2  0  0  0  0
  8 13  1  0  0  0  0
 11 14  1  0  0  0  0
 14 15  2  0  0  0  0
 15 16  1  0  0  0  0
 16 17  2  0  0  0  0
 17 18  1  0  0  0  0
 18 19  2  0  0  0  0
 14 19  1  0  0  0  0
 18 20  1  0  0  0  0
 20 21  1  0  0  0  0
 20 22  1  0  0  0  0
 20 23  1  0  0  0  0
 23 24  1  0  0  0  0
 24 25  2  0  0  0  0
 25 26  1  0  0  0  0
 26 27  2  0  0  0  0
 27 28  1  0  0  0  0
 28 29  2  0  0  0  0
 24 29  1  0  0  0  0
 29 30  1  0  0  0  0
 30 31  2  0  0  0  0
 31 32  1  0  0  0  0
 32 33  2  0  0  0  0
 28 33  1  0  0  0  0
 16 34  1  0  0  0  0
 34 35  1  0  0  0  0
 34 36  1  0  0  0  0
M  END
> <ID>
CPD_5670

$$$$
